*******************************************************************************
* NPN BJT models
*******************************************************************************
* Author: Fairchild
.MODEL SC3503 npn (IS=7.010E-13 BF=156.09 VAF=600 IKF=0.12325 ISE=1.2538E-14 NE=1.5 BR=0.64499 VAR=100 IKR=0.05102 ISC=6.4644E-09 NC=1.5 RE=0.108 RC=1.215 RB=12.134 RBM=0.034 IRB=3.0e-6 CJE=7.10E-12 CJC=8.20E-12 TF=7.025E-10 XTF=2 VTF=35 ITF=1 TR=1.0E-8 EG=0.76 XTB=1.5 FC=0.5 Vceo=300 Icrating=100m mfg=Fairchild)
* Author: Fairchild, modified by Andy (fT related parameters ver 3.)
.MODEL 2SC3503F npn (IS=7.010E-13 BF=240 IKF=0.12325 ISE=1.2538E-14 NE=1.5 BR=0.64499 VAR=100 IKR=0.05102 ISC=6.4644E-09 NC=1.5 RE=0.108 RC=1.215 RB=12.134 RBM=0.034 IRB=3.0e-6 VTF=35 TR=1.0E-8 EG=0.76 XTB=1.5 VAF=650 CJC=11.35E-12 MJC=0.3160 VJC=0.2 FC=0.950383 TF=1.6933e-010 XTF=10000 CJE=5.621e-011 VJE=0.645139 MJE=0.6 ITF=7.50579 Vceo=300 Icrating=100m mfg=Fairchild)
* Author: Fairchild
* VAF lowered from 161.939 to 80.939 to compensate BF rise
.MODEL  FSC_BC550C npn (LEVEL=1 IS=2.24183E-14 NF=0.996496 ISE=1.90217E-14 NE=2 BF=228.4 IKF=0.211766 VAF=80.939 NR=0.993 ISC=4.7863E-15 NC=0.996 BR=12.1807 IKR=0.3423 VAR=123.229 RB=167.033 IRB=7.079458E-05 RBM=1.12256 RE=0.036 RC=0.79 XTB=1.65 EG=1.1737 XTI=3 CJE=1.87E-11 VJE=0.732 MJE=0.33 CJC=6.16E-12 VJC=0.395 MJC=0.251 XCJC=0.6192 FC=0.5 TF=518.15E-12 XTF=10 VTF=10 ITF=1 TR=10.000E-9 Vceo=45 Icrating=0.2)
*******************************************************************************
* PNP BJT models
*******************************************************************************
* Author: Fairchild
.MODEL SA1381 pnp (IS=5.5544E-14 BF=148 BR=1.892 ISE=2.0546E-15 NE=1.5 ISC=2.04807E-09 NC=1.5 VAF=580 VAR=100 IKF=0.2163 IKR=0.187544 RB=10.18 RBM=0.02 IRB=2.0e-6 RE=0.0512 RC=3.572 CJE=9.572E-12 VJE=0.748 MJE=0.371 FC=0.5 CJC=1.147E-11 VJC=0.541 MJC=0.329 TF=8.0312E-10 XTB=0.907 EG=0.62 XTI=3 Vceo=300 Icrating=100m mfg=Fairchild)
* Author: Fairchild, modified by Andy (fT related parameters ver 3.)
.MODEL 2SA1381F pnp (IS=5.5544E-14 BF=230 BR=1.592 ISE=2.0546E-15 NE=1.5 ISC=3.24807E-10 NC=2 VAF=358 VAR=100 IKF=0.2163 IKR=0.087544 RB=10.18 RE=0.0512 RC=4.072 XTB=0.907 EG=0.62 XTI=3 CJC=13.4777e-12 MJC=0.2951 VJC=0.2000 FC=0.924467 TF=5.5166e-010 XTF=10000 CJE=3.785e-011 VJE=0.653329 MJE=0.473845 ITF=11.3302 VTF=35 Vceo=300 Icrating=100m mfg=Fairchild)
* Author: Fairchild, modified by: Andy Connors
* VAF lowered from 161.939 to 80.939 to compensate BF rise
.MODEL FSC_BC560C pnp (IS=2.24183E-14 NF=0.996496 ISE=3.0e-12 NE=2 BF=550 IKF=0.211766 VAF=80.939 NR=0.993 ISC=4.7863E-15 NC=0.996  BR=12.1807 IKR=0.3423 VAR=123.229 RB=167.033 IRB=7.079458E-05 RBM=1.12256 RE=0.036 RC=0.79 XTB=1.65 EG=1.1737 XTI=3 CJE=1.87E-11 VJE=0.732 MJE=0.33 CJC=6.16E-12 VJC=0.395 MJC=0.251 XCJC=0.6192 FC=0.5 TF=518.15E-12 XTF=10 VTF=10 ITF=1 TR=10.000E-9 Vceo=45 Icrating=100m mfg=Fairchild)
* Author: Fairchild
* May-09-2007
.MODEL MJE350 pnp (IS=2.7544E-13 BF=128 BR=0.0362 ISE=1.9546E-12 NE=1.5 ISC=5.24807E-12 NC=2 VAF=100 VAR=100 IKF=0.3663 IKR=0.007544 RB=0.0085 RE=0.007 RC=0.042 CJE=9.572E-12 VJE=0.748 MJE=0.371 FC=0.5 CJC=1.147E-11 VJC=0.541 MJC=0.329 TF=8.262E-10 XTB=1.125 EG=0.75 XTI=3 Vceo=300V Icrating=500m mfg=Fairchild)
