*******************************************************************************
* NPN BJT models
*******************************************************************************
* Author: Andy Connors
.MODEL MJL3281A npn (IS=9.8145e-12 BF=438.0 NF=1.00 VAF=38 IKF=19.0 ISE=1.0e-12 NE=1.1237388682 BR=4.98985 NR=1.09511 VAR=4.32026 IKR=4.37516 ISC=3.25e-13 NC=3.96875 RB=3.997 RE=0.00 RC=0.06 XTB=0.115253 XTI=1.03146 EG=1.11986 CJE=1.144e-08 VJE=0.468574 MJE=0.34957 TF=2.6769e-9 XTF=7500 VTF=3.0 ITF=1000 CJC=1.093685e-9 VJC=0.623643 MJC=0.482111 XCJC=0.959922 FC=0.1 CJS=0 VJS=0.75 MJS=0.5 TR=1e-07 PTF=0 KF=0 AF=1 Vceo=200 Icrating=15 mfg=OnSemiconductor)
* Author: OnSemi
.MODEL MJ15024 npn (IS=1e-09 BF=80.9237 NF=1.41415 VAF=29.8965 IKF=3.58072 ISE=1e-16 NE=4 BR=1.00135 NR=1.5 VAR=281.892 IKR=5.80356 ISC=1e-16 NC=2.99908 RB=9.25367 IRB=0.1 RBM=0.1 RE=0.00042229 RC=0.0571126 XTB=1.12257 XTI=1.22156 EG=1.206 CJE=6.19402e-09 VJE=0.4 MJE=0.457365 TF=1e-08 XTF=1000 VTF=1.07131 ITF=0.743213 CJC=5e-10 VJC=0.95 MJC=0.344125 XCJC=0.1 FC=0.8 CJS=0 VJS=0.75 MJS=0.5 TR=1e-07 PTF=0 KF=0 AF=1 Vceo=250 Icrating=16 mfg=OnSemiconductor)
* Author: OnSemi
.MODEL MJE340 npn (IS=1.03431e-13 BF=172.974 NF=0.939811 VAF=27.3487 IKF=0.0260146 ISE=4.48447e-11 NE=1.61605 BR=16.6725 NR=0.796984 VAR=6.11596 IKR=0.10004 ISC=9.99914e-14 NC=1.99995 RB=1.47761 IRB=0.2 RBM=1.47761 RE=0.0001 RC=1.42228 XTB=2.70726 XTI=1 EG=1.206 CJE=1e-11 VJE=0.75 MJE=0.33 TF=1e-09 XTF=1 VTF=10 ITF=0.01 CJC=1e-11 VJC=0.75 MJC=0.33 XCJC=0.9 FC=0.5 CJS=0 VJS=0.75 MJS=0.5 TR=1e-07 PTF=0 KF=0 AF=1 Vceo=300 Icrating=500m mfg=OnSemiconductor)
* Unknown author
* Added _x to distinguish it from internal lib model
.MODEL BC546B_x npn (IS=2.39E-14 NF=1.008 ISE=3.545E-15 NE=1.541 BF=200 IKF=0.1357 VAF=63.2 NR=1.004 ISC=6.272E-14 NC=1.243 BR=7.946 IKR=0.1144 VAR=25.9 RB=1 IRB=1E-06 RBM=1 RE=0.4683 RC=0.85 XTB=0 EG=1.11 XTI=3 CJE=1.358E-11 VJE=0.65 MJE=0.3279 TF=4.391E-10 XTF=120 VTF=2.643 ITF=0.7495 PTF=0 CJC=1.728E-11 VJC=0.3997 MJC=0.2955 XCJC=0.6193 TR=1E-32 CJS=0 VJS=0.75 MJS=0.333 FC=0.9579 Vceo=65 Icrating=0.2)
* Author: Bob Cordell
* Created Nov. 22, 2010
.MODEL CA_NJL3281 npn (IS=5e-12 BF=158 VAF=1000 IKF=50 ISE=20e-12 NE=1.5 NF=1.0 RB=3.0 RC=0.06 CJE=11e-9 MJE=0.35 VJE=0.5 RE=0.0 CJC=1.2e-9 MJC=0.5 VJC=0.6 FC=0.1 TF=2.7e-9 XTF=7500 VTF=3 ITF=750TR=100e-9 BR=5 VAR=4.3 NR=1.1 EG=1.1 XCJC=0.96 XTB=0.12 XTI=1.03 NC=4 ISC=0.3e-12 IKR=4.4 CJS=0 VJS=0.75 MJS=0.5 PTF=0 KF=0 AF=1 Vceo=200 Icrating=15 mfg=CA112210)
* BC550C - created March 1, 2011 copyright Cordell Audio
.MODEL CA_BC550C npn (IS=45e-15 BF=689 VAF=162 IKF=0.09 ISE=4600e-15 NE=2 NF=0.9965 RB=167 RC=1 RE=0.04 CJE=18.7e-12 MJE=0.35 VJE=0.75 CJC=6.2e-12 MJC=0.25 VJC=0.4 FC=0.5 TF=595e-12 XTF=10 VTF=10 ITF=1 TR=10e-9 BR=12.2 IKR=0.34 EG=1.2 XTB=1.65 XTI=3 NC=0.996 NR=1.0 VAR=120 IRB=7e-5 RBM=1.1 XCJC=0.6 ISC=5e-15 mfg=CA030111)
* MJE15032C - created March 29, 2011 copyright Cordell Audio
.MODEL CA_MJE15032C npn (IS=50e-12 BF=105 VAF=2000 IKF=9.0 ISE=10e-12 NE=2 NF=1.2 RB=16 RBM=0.1 IRB=0.1 RC=0.1 CJE=3.1e-9 MJE=0.35 VJE=0.65 RE=0.01 CJC=0.3e-9 MJC=0.4 VJC=0.6 FC=0.5 TF=3.8e-9 XTF=4 VTF=10 ITF=2 TR=100e-9 BR=6 VAR=15 NR=1.5 EG=1.2 XCJC=0.8 XTB=0.7 XTI=1.05 NC=4 ISC=0.4e-12 IKR=5.2 mfg=CA032911)
* 2N5401C - created March 10, 2011 copyright Cordell Audio
.MODEL CA_2N5401C pnp
+IS=25e-15	BF=220 		VAF=196
+IKF=0.2	ISE=2e-15	NE=1.4		NF=1
+RB=60 		RC=2		RE=0.1
+CJE=35e-12 	MJE=0.40	VJE=0.75
+CJC=15e-12	MJC=0.55	VJC=0.75	FC=0.5
+TF=800e-12 	XTF=60	 	VTF=0		ITF=4
+TR=1.5e-9	BR=4		IKR=0
+EG=1.1 	XTB=1.5		XTI=3		NC=2
+ISC=0		mfg=CA031011

* MJE243C - created March 11, 2011 copyright Cordell Audio
.MODEL MJE243C npn
+IS=800e-15	BF=190 		VAF=1177
+IKF=1.2	ISE=10e-12	NE=1.7		NF=1.06
+RB=45		RC=0.2		RE=0.01
+CJE=210e-12 	MJE=0.4		VJE=1.0
+CJC=85e-12	MJC=0.3		VJC=0.4		FC=0.58
+TF=3300e-12 	XTF=7		VTF=11		ITF=5
+TR=1000e-9	BR=1.7		IKR=1.0
+EG=1.05 	XTB=1.2		XTI=0.8		NC=2.9
+ISC=1e-16	NR=1.04		VAR=140		IRB=5e-5
+RBM=0.001	XCJC=0.8	mfg=CA031111
*
*
* MJE253C - created April 16, 2011 copyright Cordell Audio
.MODEL MJE253C pnp
+IS=300e-15	BF=150 		VAF=310
+IKF=1.2	ISE=30e-12	NE=2		NF=1.015
+RB=40		RC=0.3		RE=0.01
+CJE=150e-12 	MJE=0.35	VJE=1.0
+CJC=55e-12	MJC=0.2		VJC=0.35	FC=0.55
+TF=3300e-12 	XTF=7		VTF=10		ITF=5
+TR=1000e-9	BR=4		IKR=4.4
+EG=1.05 	XTB=1.3		XTI=0.01	NC=2.9
+ISC=6e-13	NR=1.15		VAR=50		IRB=7e-6
+RBM=0.001	XCJC=0.8	mfg=CA041611

*******************************************************************************
* PNP BJT models
*******************************************************************************
* Author: Andy Connors
.MODEL MJL1302A pnp (IS=9.8145e-12 BF=122.925 NF=1.00 VAF=40 IKF=19 ISE=9.18577762370362E-07 NE=5.0 BR=4.98985 NR=1.09511 VAR=4.32026 IKR=4.37516 ISC=3.25e-13 NC=3.96875 RB=3.30 RE=0.00 RC=0.06 XTB=0.115253 XTI=1.03146 EG=1.11986 CJE=1.561e-08 VJE=0.781803 MJE=0.433868 TF=3.257e-9 XTF=1000 VTF=2.0 ITF=260 CJC=2.346838e-9 VJC=0.27876 MJC=0.411324 XCJC=0.959922 FC=0.1 CJS=0 VJS=0.75 MJS=0.5 TR=1e-07 PTF=0 KF=0 AF=1 Vceo=200 Icrating=15 mfg=OnSemiconductor)
* Author: OnSemi
.MODEL MJ15025 pnp (IS=1e-09 BF=80.6168 NF=1.32219 VAF=27.5881 IKF=2.86343 ISE=4.07413e-09 NE=3.50785 BR=0.777511 NR=1.5 VAR=275.881 IKR=4.83687 ISC=4.07413e-09 NC=2.99735 RB=8.67339 IRB=0.1 RBM=0.1 RE=0.000422878 RC=0.0620212 XTB=1.12927 XTI=1.22017 EG=1.17172 CJE=7.12267e-09 VJE=0.4 MJE=0.461473 TF=1e-08 XTF=1000 VTF=1.06865 ITF=0.653882 CJC=5e-10 VJC=0.95 MJC=0.23 XCJC=0.1 FC=0.8 CJS=0 VJS=0.75 MJS=0.5 TR=1e-07 PTF=0 KF=0 AF=1 Vceo=250 Icrating=16 mfg=OnSemiconductor)
* Unknown author
* Added _x to distinguish it from internal lib model
.MODEL BC556B_x pnp (IS=3.834E-14 NF=1.008 ISE=1.219E-14 NE=1.528 BF=150 IKF=0.08039 VAF=21.11 NR=1.005 ISC=2.852E-13 NC=1.28 BR=14.84 IKR=0.047 VAR=32.02 RB=1 IRB=1E-06 RBM=1 RE=0.6202 RC=0.5713 XTB=0 EG=1.11 XTI=3 CJE=1.23E-11 VJE=0.6106 MJE=0.378 TF=5.595E-10 XTF=3.414 VTF=5.23 ITF=0.1483 PTF=0 CJC=4.084E-11 VJC=0.1022 MJC=0.3563 XCJC=0.6288 TR=1E-32 CJS=0 VJS=0.75 MJS=0.333 FC=0.8027 Vceo=65 Icrating=0.2)
* Author: Bob Cordell
* Created Nov. 22, 2010
.MODEL CA_NJL1302 pnp (IS=7e-12 BF=114 VAF=571 IKF=30 ISE=1e-7 NE=5 NF=1.0 RB=3.3 RC=0.06 CJE=16e-9 MJE=0.43 VJE=0.78 RE=0.0 CJC=2.3e-9 MJC=0.4 VJC=0.3 FC=0.1 TF=3.0e-9 XTF=1000 VTF=2 ITF=150 TR=100e-9 BR=5 VAR=4.3 NR=1.1 EG=1.1 XCJC=0.96 XTB=0.12 XTI=1.03 NC=4 ISC=0.3e-12 IKR=4.4 CJS=0 VJS=0.75 MJS=0.5 PTF=0 KF=0 AF=1 Vceo=200 Icrating=15 mfg=CA112210)
* BC560C - created March 2, 2011 copyright Cordell Audio
.MODEL CA_BC560C pnp (IS=60e-15 BF=900 VAF=160 IKF=0.10 ISE=70e-15 NE=1.42 NF=1 RB=170 RC=1.0 RE=0.05 CJE=19e-12 MJE=0.3 VJE=0.75 CJC=3.9e-12 MJC=0.3 VJC=0.75 FC=0.5 TF=600e-12 XTF=7 VTF=4 ITF=0.45 TR=10e-9 BR=3 IKR=0 EG=1.1 XTB=1.5 XTI=3 NC=2 ISC=0 mfg=CA030211)
* MJE15033C - created April 16, 2011 copyright Cordell Audio
.MODEL CA_MJE15033C pnp (IS=300e-12 BF=160 VAF=500 IKF=3.0 ISE=10e-12 NE=2 NF=1.3 RB=5 RBM=0.1 IRB=0.1 RC=0.5 CJE=3.1e-9 MJE=0.35 VJE=0.65 RE=0.01 CJC=0.3e-9 MJC=0.4 VJC=0.6 FC=0.5 TF=3.7e-9 XTF=4 VTF=10 ITF=2 TR=100e-9 BR=5 VAR=15 NR=1.5 EG=1.05 XCJC=0.8 XTB=0.22 XTI=1.0 NC=4 ISC=0.3e-12 IKR=7.5 mfg=CA041611)
* 2N5551C - created March 10, 2011 copyright Cordell Audio
.MODEL CA_2N5551C npn
+IS=9e-15	BF=125 		VAF=667
+IKF=0.09	ISE=1e-15	NE=1.3		NF=1
+RB=92 		RC=1		RE=0.1
+CJE=45e-12 	MJE=0.35	VJE=0.75
+CJC=4.9e-12	MJC=0.30	VJC=0.75	FC=0.5
+TF=565e-12 	XTF=300		VTF=5		ITF=2.0
+TR=1.2e-9	BR=3		IKR=0
+EG=1.1 	XTB=1.5		XTI=3		NC=2
+ISC=0		mfg=CA031011
