* Model generated on October 12, 2003
.MODEL 1N5404 D (IS=2.61339e-12 RS=0.0110501 N=1.20576 EG=0.6 XTI=3.1271 BV=400 IBV=1e-05 CJO=1e-11 VJ=0.7 M=0.5 FC=0.5 TT=1e-09 KF=0 AF=1)
