*******************************************************************************
* Diodes
*******************************************************************************
.MODEL BAV21 d (IS=7.294112E-09 RS=0.706 N=1.904350 BV=250 IBV=100e-6 NBV=145.396351 VJ=0.666016 M=0.084417 CJO=5.0e-12 TT=68.1e-9)
