*******************************************************************************
* NPN BJT models
*******************************************************************************
* Author: Andy_Connors
.MODEL 2SC4793_old1 npn (IS=1.8E-09 NF=1.43 BF=146.38 VAF=273 IKF=2.6 NK=0.95 ISE=6.286997E-10 NE=2.223629 BR=4 NR=1 VAR=20 IKR=1.05 RE=0 RB=1.7 RC=1.25 CJE=5.96964E-10 VJE=1.1 MJE=0.5 CJC=5.78E-11 VJC=0.3 MJC=0.3 TF=1.22678E-09 FC=0.5 ITF=10 XTF=99.52253015 TR=983N Vceo=230 Icrating=1 mfg=Toshiba)
* Author: Andy_Connors
* Rev. 1, Created Jan. 14, 2011, with new Matlab script
.MODEL 2SC4793 NPN (IS=1.8E-09 NF=1.43 BF=250 VAF=273 IKF=1.86762 NK=0.862397 ISE=4.7530e-11 NE=1.62116 BR=4 NR=1 VAR=20 IKR=1.05 RE=0 RB=1.4529 RC=1.25 CJE=2.4119e-010 VJE=0.776851 MJE=1 CJC=48.15E-12 VJC=0.75 MJC=0.33 TF=9.5343e-010 FC=0.947804 ITF=1169.93 XTF=10000 VTF=35 TR=983N Vceo=230 Icrating=1 mfg=Toshiba)
*******************************************************************************
* PNP BJT models
*******************************************************************************
* Author: Andy Connors
.MODEL 2SA1837_old1 pnp (IS=2.39372559E-10 NF=1.304015937 BF=300 VAF=273 IKF=2.087725944 NK=0.94719458 ISE=1.46829699E-11 NE=1.526663542 BR=4 NR=1 VAR=20 IKR=1.05 RE=0 RB=1.8 RC=1.65 CJE=4.7407E-10 VJE=1.1 MJE=0.5 CJC=8.6700E-11 VJC=0.3 MJC=0.3 TF=1.642191E-09 FC=0.5 ITF=1.076260106 XTF=5.868994022 TR=1.38U Vceo=230 Icrating=1 mfg=Toshiba)
* Author: Andy Connors
* Rev. 1 Created Jan. 16, 2011, with new Matlab scripts
.MODEL 2SA1837 PNP (IS=2.3937e-010 NF=1.304 BF=250 VAF=273 IKF=1.9914 NK=0.9117  ISE=2.1180e-011 NE=1.5815 BR=4 NR=1 VAR=20 IKR=1.05 RE=0 RB=1.702 RC=1.65 CJE=1.5564e-010 VJE=0.726406 MJE=1 CJC=7.2230e-011 VJC=0.75 MJC=0.33 TF=1.16651e-9 FC=0.966476 ITF=1270.37 XTF=10000 VTF=35 TR=1.38U Vceo=230 Icrating=1 mfg=Toshiba)
