*******************************************************************************
* OPAMPS
*******************************************************************************
* TI default model
* 10 Jan 2002
.SUBCKT LM393    1 2 3 4 5
  F1    9  3 V1 1
  IEE   3  7 DC 100.0E-6
  VI1  21  1 DC .75
  VI2  22  2 DC .75
  Q1    9 21  7 QIN
  Q2    8 22  7 QIN
  Q3    9  8  4 QMO
  Q4    8  8  4 QMI
.MODEL QIN PNP(IS=800.0E-18 BF=2.000E3)
.MODEL QMI NPN(IS=800.0E-18 BF=1002)
.MODEL QMO NPN(IS=800.0E-18 BF=1000 CJC=1E-15 TR=807.4E-9)
  E1   10  4  9  4  1
  V1   10 11 DC 0
  Q5    5 11  4 QOC
.MODEL QOC NPN(IS=800.0E-18 BF=20.29E3 CJC=1E-15 TF=942.6E-12 TR=543.8E-9)
  DP    4  3 DX
  RP 3  4 46.3E3
.MODEL DX  D(IS=800.0E-18)
.ENDS
.SUBCKT TL431 7 6 11
*             K A FDBK
V1 1 6 2.495
R1 6 2 15.6
C1 2 6 .5U
R2 2 3 100
C2 3 4 .08U
R3 4 6 10
GB1 6 8 VALUE = {IF(V(3,6)< 0 , 1.73*V(3,6) -1U , -1U)}
D1 5 8 DCLAMP
D2 7 8 DCLAMP
V4 5 6 2
G1 6 2 1 11 0.11
.MODEL DCLAMP D (IS=13.5N RS=25M N=1.59
+ CJO=45P VJ=.75 M=.302 TT=50.4N BV=34V IBV=1MA)
.ENDS

*                   in+ in- vcc vee biasn biasp source sink ccomp
.SUBCKT LME49810    1   2   3   4   5     6     7      8    9
Q1 5 N016 N022 0 NPN2
I1 3 N004 2.8m
Q2 3 N004 7 0 NPN2
Q3 4 5 8 0 PNP2
Q4 N004 N004 N005 0 NPN2
Q5 N005 N005 6 0 NPN2
C5 3 N004 6p
D1 5 6 zener
Q6 9 N015 N020 0 NPN1
Q7 N013 N015 N021 0 NPN1
R10 N021 4 10
R11 N020 4 10
Q8 9 N008 N006 0 PNP1
Q9 N013 N009 N007 0 PNP1
I2 3 N003 0.5m
C4 3 N003 5p
R13 3 N001 500k
R14 N003 N006 800
R15 N003 N007 800
V1 N009 N010 3m
Q10 3 2 N010 0 NPN1
Q11 3 1 N008 0 NPN1
Q12 N011 9 N016 0 NPN1
Q13 N011 N013 N015 0 NPN1
C10 N001 N003 1µ
R9 N022 4 200
R16 3 N002 400k
C9 N002 N004 1µ
Q14 vcc 0 N011 0 NPN1
Q15 N008 N014 N017 0 NPN1
Q16 N010 N014 N019 0 NPN1
R17 N019 4 39k
R18 N017 4 39k
Q17 N011 N012 N014 0 NPN1
R7 N011 N012 100k
V6 N018 4 2.5 Rser=1
D2 N012 N018 diode
Q18 N014 N024 N026 0 NPN1
Q19 N015 N024 N027 0 NPN1
Q20 N016 N024 N028 0 NPN1
R12 N027 4 5
R19 N028 4 5
R20 N026 4 5
Q21 N024 N024 N025 0 NPN1
R21 N025 4 5
I3 N011 N024 100µ
R8 N011 N023 400k
C6 N023 N024 1µ
.model npn1 npn (IS=2e-14 IKF=0.1 VAF=80 BF=320 RE=10 RB=50 RBM=1 IRB=50u CJC=3p CJE=8p XCJC=0.8)
.model npn2 npn (IS=2e-14 IKF=0.18 VAF=50 BF=150 RE=5 RB=100 RBM=7 IRB=20u CJC=6p CJE=9p XCJC=0.6)
.model pnp2 pnp (IS=2e-14 IKF=0.15 VAF=40 BF=100 RE=7 RB=150 RBM=10 IRB=20u CJC=7p CJE=10p XCJC=0.6)
.model pnp1 pnp (IS=2e-14 IKF=0.08 VAF=94 BF=250 RE=10 RB=70 RBM=2 IRB=50u CJC=4p CJE=9p)
.model diode D(Is=2.52n Rs=.568 N=1.752 Cjo=4p M=.4 tt=20n Iave=200m Vpk=75)
.model zener D(Is=.6n Rs=.5 Cjo=150p nbv=5 bv=10 Ibv=1m Vpk=10)
.ENDS

***** NE5532 Source: Texas Instruments NE5534
* C2 added to simulate compensated frequency response (Uwe Beis)

* NE5532 OPERATIONAL AMPLIFIER "MACROMODEL" SUBCIRCUIT
* CREATED USING NE5534 model from Texas InstrumentsAT 12:41
* (REV N/A)      SUPPLY VOLTAGE: +/-15V
* CONNECTIONS:   NON-INVERTING INPUT
*                | INVERTING INPUT
*                | | POSITIVE POWER SUPPLY
*                | | | NEGATIVE POWER SUPPLY
*                | | | | OUTPUT
*                | | | | |
.SUBCKT NE5532   1 2 3 4 5
*
C1   11 12 7.703E-12
C2    6  7 23.500E-12
DC    5 53 DX
DE   54  5 DX
DLP  90 91 DX
DLN  92 90 DX
DP    4  3 DX
EGND 99  0 POLY(2) (3,0) (4,0) 0 .5 .5
FB    7 99 POLY(5) VB VC VE VLP VLN 0 2.893E6 -3E6 3E6 3E6 -3E6
GA    6  0 11 12 1.382E-3
GCM   0  6 10 99 13.82E-9
IEE  10  4 DC 133.0E-6
HLIM 90  0 VLIM 1K
Q1   11  2 13 QX
Q2   12  1 14 QX
R2    6  9 100.0E3
RC1   3 11 723.3
RC2   3 12 723.3
RE1  13 10 329
RE2  14 10 329
REE  10 99 1.504E6
RO1   8  5 50
RO2   7 99 25
RP    3  4 7.757E3
VB    9  0 DC 0
VC    3 53 DC 2.700
VE   54  4 DC 2.700
VLIM  7  8 DC 0
VLP  91  0 DC 38
VLN   0 92 DC 38
.MODEL DX D(IS=800.0E-18)
.MODEL QX NPN(IS=800.0E-18 BF=132)
.ENDS
