Version 4
SHEET 1 880 680
WIRE 64 64 -32 64
WIRE 160 64 64 64
WIRE -32 80 -32 64
WIRE 160 128 160 64
WIRE -32 176 -32 160
WIRE 240 192 208 192
WIRE -32 288 -32 256
WIRE 160 288 160 256
WIRE 160 288 -32 288
WIRE 240 288 240 192
WIRE 240 288 160 288
WIRE -32 304 -32 288
FLAG -32 304 0
FLAG 64 64 vb
SYMBOL voltage -32 160 R0
WINDOW 123 24 132 Left 0
WINDOW 39 0 0 Left 0
SYMATTR Value2 AC 1
SYMATTR InstName V1
SYMATTR Value 9
SYMBOL res -48 64 R0
SYMATTR InstName R1
SYMATTR Value 10k
SYMBOL LM136 160 192 R0
SYMATTR InstName X2
TEXT 272 64 Left 0 !.ac oct 10 10 10meg
