Version 4
SHEET 1 8340 2336
WIRE 1216 -1536 832 -1536
WIRE 2080 -1536 2048 -1536
WIRE 2192 -1536 2160 -1536
WIRE 2416 -1536 2272 -1536
WIRE 2464 -1536 2416 -1536
WIRE 2880 -1536 2848 -1536
WIRE 2992 -1536 2960 -1536
WIRE 3744 -1536 3072 -1536
WIRE 848 -1440 832 -1440
WIRE 1040 -1440 912 -1440
WIRE 1216 -1440 1216 -1536
WIRE 1216 -1440 1120 -1440
WIRE 1312 -1440 1216 -1440
WIRE 1408 -1440 1392 -1440
WIRE 1504 -1440 1488 -1440
WIRE 1664 -1440 1584 -1440
WIRE 2464 -1440 2464 -1536
WIRE 2880 -1440 2848 -1440
WIRE 2992 -1440 2960 -1440
WIRE 3456 -1440 3072 -1440
WIRE 7728 -1424 7344 -1424
WIRE 4816 -1376 4624 -1376
WIRE 5008 -1376 4816 -1376
WIRE 5104 -1376 5008 -1376
WIRE 5296 -1376 5104 -1376
WIRE 6064 -1376 5296 -1376
WIRE 6192 -1376 6064 -1376
WIRE 6256 -1376 6192 -1376
WIRE 6544 -1376 6256 -1376
WIRE 6576 -1376 6544 -1376
WIRE 4624 -1360 4624 -1376
WIRE 5296 -1360 5296 -1376
WIRE 1216 -1344 1216 -1440
WIRE 1232 -1344 1216 -1344
WIRE 1312 -1344 1296 -1344
WIRE 1408 -1344 1392 -1344
WIRE 1664 -1344 1488 -1344
WIRE 2464 -1344 2464 -1360
WIRE 2880 -1344 2848 -1344
WIRE 2992 -1344 2960 -1344
WIRE 3168 -1344 3072 -1344
WIRE 7360 -1328 7344 -1328
WIRE 7552 -1328 7424 -1328
WIRE 7728 -1328 7728 -1424
WIRE 7728 -1328 7632 -1328
WIRE 7824 -1328 7728 -1328
WIRE 7920 -1328 7904 -1328
WIRE 8016 -1328 8000 -1328
WIRE 8176 -1328 8096 -1328
WIRE 6256 -1280 6256 -1376
WIRE 6272 -1280 6256 -1280
WIRE 6352 -1280 6336 -1280
WIRE 2080 -1248 2048 -1248
WIRE 2192 -1248 2160 -1248
WIRE 2416 -1248 2272 -1248
WIRE 2464 -1248 2464 -1264
WIRE 2464 -1248 2416 -1248
WIRE 2880 -1248 2848 -1248
WIRE 2992 -1248 2960 -1248
WIRE 3168 -1248 3168 -1344
WIRE 3168 -1248 3072 -1248
WIRE 3456 -1248 3456 -1360
WIRE 3456 -1248 3168 -1248
WIRE 4816 -1232 4816 -1376
WIRE 5104 -1232 5104 -1376
WIRE 7728 -1232 7728 -1328
WIRE 7744 -1232 7728 -1232
WIRE 7824 -1232 7808 -1232
WIRE 7920 -1232 7904 -1232
WIRE 8176 -1232 8000 -1232
WIRE 4624 -1184 4624 -1280
WIRE 4640 -1184 4624 -1184
WIRE 4752 -1184 4720 -1184
WIRE 5200 -1184 5168 -1184
WIRE 5296 -1184 5296 -1280
WIRE 5296 -1184 5280 -1184
WIRE 6256 -1184 6256 -1280
WIRE 6272 -1184 6256 -1184
WIRE 6352 -1184 6336 -1184
WIRE 2880 -1152 2848 -1152
WIRE 2992 -1152 2960 -1152
WIRE 3456 -1152 3456 -1168
WIRE 3456 -1152 3072 -1152
WIRE 4624 -1136 4624 -1184
WIRE 5296 -1136 5296 -1184
WIRE 4816 -1088 4816 -1136
WIRE 4816 -1088 4688 -1088
WIRE 5104 -1088 5104 -1136
WIRE 5232 -1088 5104 -1088
WIRE 5008 -1072 5008 -1376
WIRE 2880 -1056 2848 -1056
WIRE 2992 -1056 2960 -1056
WIRE 3168 -1056 3072 -1056
WIRE 6064 -1040 6064 -1376
WIRE -32 -992 -224 -992
WIRE 160 -992 -32 -992
WIRE 256 -992 160 -992
WIRE 448 -992 256 -992
WIRE 1216 -992 448 -992
WIRE 1344 -992 1216 -992
WIRE 1408 -992 1344 -992
WIRE 1696 -992 1408 -992
WIRE 1728 -992 1696 -992
WIRE 4624 -992 4624 -1040
WIRE 4816 -992 4816 -1088
WIRE 5008 -992 5008 -1008
WIRE 5104 -992 5104 -1008
WIRE 5104 -992 5008 -992
WIRE 5296 -992 5296 -1040
WIRE -224 -976 -224 -992
WIRE 448 -976 448 -992
WIRE 2880 -960 2848 -960
WIRE 2992 -960 2960 -960
WIRE 3168 -960 3168 -1056
WIRE 3168 -960 3072 -960
WIRE 3456 -960 3456 -1072
WIRE 3456 -960 3168 -960
WIRE 3552 -960 3456 -960
WIRE 6064 -944 6064 -1040
WIRE 1408 -896 1408 -992
WIRE 1424 -896 1408 -896
WIRE 1504 -896 1488 -896
WIRE 4816 -896 4816 -912
WIRE 5104 -896 5104 -912
WIRE 5296 -896 5296 -992
WIRE 5392 -896 5376 -896
WIRE 5488 -896 5392 -896
WIRE 5584 -896 5488 -896
WIRE 5888 -896 5584 -896
WIRE 6000 -896 5968 -896
WIRE 6256 -896 6256 -1184
WIRE 5584 -880 5584 -896
WIRE 6544 -880 6544 -1376
WIRE 2880 -864 2848 -864
WIRE 2992 -864 2960 -864
WIRE 3168 -864 3168 -960
WIRE 3168 -864 3072 -864
WIRE 3280 -864 3264 -864
WIRE 3360 -864 3344 -864
WIRE 3456 -864 3456 -880
WIRE 3456 -864 3440 -864
WIRE 3472 -864 3456 -864
WIRE 3568 -864 3552 -864
WIRE 3648 -864 3632 -864
WIRE -32 -848 -32 -992
WIRE 256 -848 256 -992
WIRE -224 -800 -224 -896
WIRE -208 -800 -224 -800
WIRE -96 -800 -128 -800
WIRE 352 -800 320 -800
WIRE 448 -800 448 -896
WIRE 448 -800 432 -800
WIRE 1408 -800 1408 -896
WIRE 1424 -800 1408 -800
WIRE 1504 -800 1488 -800
WIRE 5296 -800 5296 -896
WIRE 2880 -768 2848 -768
WIRE 2992 -768 2960 -768
WIRE 3168 -768 3072 -768
WIRE 3264 -768 3264 -864
WIRE 3264 -768 3168 -768
WIRE 3280 -768 3264 -768
WIRE 3360 -768 3344 -768
WIRE 3456 -768 3456 -784
WIRE 3456 -768 3440 -768
WIRE 3472 -768 3456 -768
WIRE 3568 -768 3552 -768
WIRE 3648 -768 3648 -864
WIRE 3648 -768 3632 -768
WIRE 3744 -768 3744 -1536
WIRE 3744 -768 3648 -768
WIRE -224 -752 -224 -800
WIRE 448 -752 448 -800
WIRE 3168 -752 3168 -768
WIRE 3264 -752 3264 -768
WIRE 3648 -752 3648 -768
WIRE 3744 -752 3744 -768
WIRE 6256 -752 6256 -896
WIRE -32 -704 -32 -752
WIRE -32 -704 -160 -704
WIRE 256 -704 256 -752
WIRE 384 -704 256 -704
WIRE 6064 -704 6064 -848
WIRE 6080 -704 6064 -704
WIRE 6192 -704 6160 -704
WIRE 6544 -704 6544 -816
WIRE 6576 -704 6544 -704
WIRE 160 -688 160 -992
WIRE 3264 -672 3264 -688
WIRE 3552 -672 3264 -672
WIRE 3648 -672 3648 -688
WIRE 3648 -672 3552 -672
WIRE 1216 -656 1216 -992
WIRE 5584 -656 5584 -816
WIRE 3168 -640 3168 -688
WIRE 3360 -640 3168 -640
WIRE 3744 -640 3744 -688
WIRE 3744 -640 3360 -640
WIRE -416 -608 -416 -624
WIRE -320 -608 -320 -624
WIRE -224 -608 -224 -656
WIRE -32 -608 -32 -704
WIRE 160 -608 160 -624
WIRE 256 -608 256 -624
WIRE 256 -608 160 -608
WIRE 448 -608 448 -656
WIRE 5680 -608 5648 -608
WIRE 5776 -608 5680 -608
WIRE 5888 -608 5776 -608
WIRE 6256 -608 6256 -656
WIRE 6256 -608 5968 -608
WIRE 5680 -592 5680 -608
WIRE 5776 -592 5776 -608
WIRE 3360 -576 3360 -640
WIRE 3456 -576 3456 -768
WIRE 3456 -576 3440 -576
WIRE 3472 -576 3456 -576
WIRE 3552 -576 3552 -672
WIRE 1216 -560 1216 -656
WIRE 5392 -560 5392 -896
WIRE 3456 -544 3456 -576
WIRE -656 -512 -656 -624
WIRE -512 -512 -512 -624
WIRE -416 -512 -416 -528
WIRE -320 -512 -320 -528
WIRE -32 -512 -32 -528
WIRE 256 -512 256 -528
WIRE 448 -512 448 -608
WIRE 544 -512 528 -512
WIRE 640 -512 544 -512
WIRE 736 -512 640 -512
WIRE 1040 -512 736 -512
WIRE 1152 -512 1120 -512
WIRE 1408 -512 1408 -800
WIRE 4624 -512 4624 -992
WIRE 4624 -512 4528 -512
WIRE 4720 -512 4624 -512
WIRE 5296 -512 5296 -720
WIRE 5328 -512 5296 -512
WIRE 6064 -512 6064 -704
WIRE 6256 -512 6256 -608
WIRE -576 -496 -576 -624
WIRE -576 -496 -608 -496
WIRE 736 -496 736 -512
WIRE 1696 -496 1696 -992
WIRE 4336 -496 4336 -512
WIRE 4528 -496 4528 -512
WIRE 4720 -496 4720 -512
WIRE 5488 -496 5488 -896
WIRE 5776 -496 5776 -512
WIRE -576 -448 -608 -448
WIRE -656 -416 -656 -432
WIRE -576 -416 -576 -448
WIRE -576 -416 -656 -416
WIRE -512 -416 -512 -432
WIRE -512 -416 -576 -416
WIRE -416 -416 -416 -432
WIRE -416 -416 -512 -416
WIRE -320 -416 -320 -432
WIRE -320 -416 -416 -416
WIRE 448 -416 448 -512
WIRE 4336 -416 4336 -432
WIRE 5584 -416 5584 -560
WIRE 5680 -416 5680 -512
WIRE 5680 -416 5584 -416
WIRE 5776 -416 5776 -432
WIRE 5776 -416 5680 -416
WIRE 6256 -416 6256 -432
WIRE 6256 -416 5776 -416
WIRE 6480 -416 6256 -416
WIRE 6544 -416 6544 -704
WIRE 6544 -416 6480 -416
WIRE 6928 -416 6928 -608
WIRE 6928 -416 6544 -416
WIRE 7024 -416 6928 -416
WIRE 7040 -416 7024 -416
WIRE 7216 -416 7120 -416
WIRE -512 -400 -512 -416
WIRE 5776 -400 5776 -416
WIRE 6256 -400 6256 -416
WIRE 1408 -368 1408 -512
WIRE 4528 -368 4528 -416
WIRE 4720 -368 4720 -416
WIRE 1216 -320 1216 -464
WIRE 1232 -320 1216 -320
WIRE 1344 -320 1312 -320
WIRE 1696 -320 1696 -432
WIRE 1728 -320 1696 -320
WIRE 4336 -320 4336 -336
WIRE 4432 -320 4336 -320
WIRE 4464 -320 4432 -320
WIRE 4816 -320 4784 -320
WIRE 5104 -320 5104 -416
WIRE 5296 -320 5296 -512
WIRE 5680 -320 5680 -416
WIRE 5776 -320 5776 -336
WIRE 7024 -320 7024 -416
WIRE 7040 -320 7024 -320
WIRE 7120 -320 7120 -416
WIRE 4336 -304 4336 -320
WIRE 4432 -304 4432 -320
WIRE 6928 -304 6928 -336
WIRE 736 -272 736 -432
WIRE 5584 -272 5584 -416
WIRE 2800 -256 2752 -256
WIRE 2848 -256 2800 -256
WIRE 2944 -256 2848 -256
WIRE 3520 -256 3424 -256
WIRE 3712 -256 3520 -256
WIRE 832 -224 800 -224
WIRE 928 -224 832 -224
WIRE 1040 -224 928 -224
WIRE 1408 -224 1408 -272
WIRE 1408 -224 1120 -224
WIRE 5296 -224 5296 -240
WIRE 5680 -224 5680 -240
WIRE 5680 -224 5648 -224
WIRE 5776 -224 5776 -240
WIRE 5776 -224 5680 -224
WIRE 5888 -224 5776 -224
WIRE 6256 -224 6256 -320
WIRE 6256 -224 5968 -224
WIRE 832 -208 832 -224
WIRE 928 -208 928 -224
WIRE 3520 -208 3520 -256
WIRE 4336 -208 4336 -240
WIRE 4432 -208 4432 -224
WIRE 6928 -208 6928 -240
WIRE 544 -176 544 -512
WIRE 6256 -176 6256 -224
WIRE 3424 -160 3424 -256
WIRE 3456 -160 3424 -160
WIRE 3424 -144 3424 -160
WIRE -224 -128 -224 -608
WIRE -224 -128 -320 -128
WIRE -128 -128 -224 -128
WIRE 448 -128 448 -336
WIRE 480 -128 448 -128
WIRE 1216 -128 1216 -320
WIRE 1408 -128 1408 -224
WIRE 4928 -128 4912 -128
WIRE 5024 -128 5008 -128
WIRE 5104 -128 5104 -240
WIRE 5104 -128 5088 -128
WIRE 5120 -128 5104 -128
WIRE 5296 -128 5296 -144
WIRE 5296 -128 5184 -128
WIRE 6064 -128 6064 -432
WIRE 6080 -128 6064 -128
WIRE 6192 -128 6160 -128
WIRE -512 -112 -512 -128
WIRE -320 -112 -320 -128
WIRE -128 -112 -128 -128
WIRE 640 -112 640 -512
WIRE 928 -112 928 -128
WIRE 2848 -64 2848 -256
WIRE 2752 -48 2752 -256
WIRE -512 -32 -512 -48
WIRE 736 -32 736 -176
WIRE 832 -32 832 -128
WIRE 832 -32 736 -32
WIRE 928 -32 928 -48
WIRE 928 -32 832 -32
WIRE 1408 -32 1408 -48
WIRE 1408 -32 928 -32
WIRE 1632 -32 1408 -32
WIRE 1696 -32 1696 -320
WIRE 1696 -32 1632 -32
WIRE 1888 -32 1776 -32
WIRE 2000 -32 1920 -32
WIRE 2080 -32 2080 -224
WIRE 2176 -32 2080 -32
WIRE 2192 -32 2176 -32
WIRE 2368 -32 2272 -32
WIRE 928 -16 928 -32
WIRE 1408 -16 1408 -32
WIRE 3520 -16 3520 -112
WIRE 5584 -16 5584 -176
WIRE 6544 -16 6544 -416
WIRE -320 16 -320 -32
WIRE -128 16 -128 -32
WIRE 5104 16 5104 -32
WIRE 6064 16 6064 -128
WIRE 2752 32 2752 16
WIRE 2848 32 2848 16
WIRE 2848 32 2752 32
WIRE 2944 32 2848 32
WIRE 3424 32 3424 -64
WIRE 3456 32 3424 32
WIRE 3712 32 3616 32
WIRE -512 64 -512 48
WIRE -416 64 -512 64
WIRE -384 64 -416 64
WIRE -32 64 -64 64
WIRE 256 64 256 -32
WIRE 448 64 448 -128
WIRE 832 64 832 -32
WIRE 928 64 928 48
WIRE 2176 64 2176 -32
WIRE 2192 64 2176 64
WIRE 2272 64 2272 -32
WIRE 4528 64 4528 -272
WIRE 4912 64 4912 -128
WIRE 4912 64 4528 64
WIRE 5008 64 4912 64
WIRE 5040 64 5008 64
WIRE 5216 64 5040 64
WIRE 5296 64 5296 -128
WIRE 5296 64 5280 64
WIRE 5392 64 5392 -464
WIRE 5392 64 5296 64
WIRE 5488 64 5488 -432
WIRE 5488 64 5392 64
WIRE 5584 64 5584 48
WIRE 5584 64 5488 64
WIRE 5888 64 5584 64
WIRE 6000 64 5968 64
WIRE -512 80 -512 64
WIRE -416 80 -416 64
WIRE 2080 80 2080 48
WIRE 4912 80 4912 64
WIRE 736 112 736 -32
WIRE 3424 128 3424 32
WIRE 3520 128 3520 80
WIRE 3616 128 3616 112
WIRE 3712 128 3616 128
WIRE 448 160 448 144
WIRE 832 160 832 144
WIRE 832 160 800 160
WIRE 928 160 928 144
WIRE 928 160 832 160
WIRE 1040 160 928 160
WIRE 1408 160 1408 64
WIRE 1408 160 1120 160
WIRE -512 176 -512 144
WIRE -416 176 -416 160
WIRE 2080 176 2080 144
WIRE 3616 176 3616 128
WIRE 1408 208 1408 160
WIRE 5296 208 5296 64
WIRE 2464 224 2448 224
WIRE 2480 224 2464 224
WIRE 3328 224 3328 128
WIRE 3344 224 3328 224
WIRE 3424 224 3424 208
WIRE 3424 224 3408 224
WIRE 3520 224 3520 208
WIRE 3552 224 3520 224
WIRE 2464 240 2464 224
WIRE 3328 240 3328 224
WIRE 3424 240 3424 224
WIRE 3520 240 3520 224
WIRE 80 256 64 256
WIRE 176 256 160 256
WIRE 256 256 256 144
WIRE 256 256 240 256
WIRE 272 256 256 256
WIRE 448 256 448 240
WIRE 448 256 336 256
WIRE 1216 256 1216 -48
WIRE 1232 256 1216 256
WIRE 1344 256 1312 256
WIRE 4720 256 4720 -272
WIRE 4720 256 4624 256
WIRE 5104 256 5104 112
WIRE 5232 256 5104 256
WIRE 4528 304 4528 64
WIRE 4720 304 4720 256
WIRE 5008 304 5008 64
WIRE 3616 320 3616 272
WIRE 3616 320 3520 320
WIRE 3712 320 3616 320
WIRE 2464 336 2464 320
WIRE 2464 352 2464 336
WIRE 4624 352 4624 256
WIRE 4624 352 4592 352
WIRE 4656 352 4624 352
WIRE 5200 352 5072 352
WIRE 5296 352 5296 304
WIRE 5296 352 5280 352
WIRE 6256 352 6256 -80
WIRE 6272 352 6256 352
WIRE 6352 352 6336 352
WIRE 736 368 736 208
WIRE 1696 368 1696 -32
WIRE 3424 368 3424 320
WIRE 256 400 256 352
WIRE 1216 400 1216 256
WIRE 3328 416 3328 320
WIRE 3360 416 3328 416
WIRE 2368 432 2368 224
WIRE 2560 432 2560 224
WIRE 3328 432 3328 416
WIRE -320 448 -320 112
WIRE 64 448 64 256
WIRE 64 448 -320 448
WIRE 160 448 64 448
WIRE 192 448 160 448
WIRE 368 448 192 448
WIRE 448 448 448 256
WIRE 448 448 432 448
WIRE 544 448 544 -80
WIRE 544 448 448 448
WIRE 640 448 640 -48
WIRE 640 448 544 448
WIRE 736 448 736 432
WIRE 736 448 640 448
WIRE 1040 448 736 448
WIRE 1152 448 1120 448
WIRE 4528 448 4528 400
WIRE 4720 448 4720 400
WIRE 5104 448 5104 256
WIRE 5296 448 5296 352
WIRE 6256 448 6256 352
WIRE 6272 448 6256 448
WIRE 6352 448 6336 448
WIRE 64 464 64 448
WIRE 4912 464 4912 160
WIRE 5680 464 5680 448
WIRE 5776 464 5776 448
WIRE 4528 544 4528 528
WIRE 4720 544 4720 528
WIRE 4720 544 4528 544
WIRE 4912 544 4912 528
WIRE 4912 544 4720 544
WIRE 5008 544 5008 400
WIRE 5008 544 4912 544
WIRE 5104 544 5104 528
WIRE 5104 544 5008 544
WIRE 5296 544 5296 528
WIRE 5296 544 5104 544
WIRE 5680 544 5680 528
WIRE 5680 544 5296 544
WIRE 5776 544 5776 528
WIRE 5776 544 5680 544
WIRE 5888 544 5776 544
WIRE 6064 544 6064 112
WIRE 6064 544 5968 544
WIRE 6192 544 6064 544
WIRE 6256 544 6256 448
WIRE 6256 544 6192 544
WIRE 6544 544 6544 48
WIRE 6544 544 6256 544
WIRE 6576 544 6544 544
WIRE 3424 560 3424 464
WIRE 448 592 448 448
WIRE 3328 608 3328 512
WIRE 3360 608 3328 608
WIRE -128 640 -128 112
WIRE -128 640 -224 640
WIRE 256 640 256 496
WIRE 384 640 256 640
WIRE -320 688 -320 448
WIRE -128 688 -128 640
WIRE 160 688 160 448
WIRE 3328 704 3328 608
WIRE 3424 704 3424 656
WIRE 3424 704 3328 704
WIRE 3712 704 3424 704
WIRE -224 736 -224 640
WIRE -224 736 -256 736
WIRE -192 736 -224 736
WIRE 352 736 224 736
WIRE 448 736 448 688
WIRE 448 736 432 736
WIRE 1408 736 1408 304
WIRE 1424 736 1408 736
WIRE 1504 736 1488 736
WIRE -320 832 -320 784
WIRE -128 832 -128 784
WIRE 256 832 256 640
WIRE 448 832 448 736
WIRE 1408 832 1408 736
WIRE 1424 832 1408 832
WIRE 1504 832 1488 832
WIRE 64 848 64 544
WIRE 832 848 832 832
WIRE 928 848 928 832
WIRE -320 928 -320 912
WIRE -128 928 -128 912
WIRE -128 928 -320 928
WIRE 64 928 64 912
WIRE 64 928 -128 928
WIRE 160 928 160 784
WIRE 160 928 64 928
WIRE 256 928 256 912
WIRE 256 928 160 928
WIRE 448 928 448 912
WIRE 448 928 256 928
WIRE 832 928 832 912
WIRE 832 928 448 928
WIRE 928 928 928 912
WIRE 928 928 832 928
WIRE 1040 928 928 928
WIRE 1216 928 1216 496
WIRE 1216 928 1120 928
WIRE 1344 928 1216 928
WIRE 1408 928 1408 832
WIRE 1408 928 1344 928
WIRE 1696 928 1696 432
WIRE 1696 928 1408 928
WIRE 1728 928 1696 928
FLAG 1728 -992 vcc+
IOPIN 1728 -992 In
FLAG 2464 224 x
FLAG 1728 928 vcc-
IOPIN 1728 928 In
FLAG 2080 -224 out
IOPIN 2080 -224 Out
FLAG 832 -1536 nfb
IOPIN 832 -1536 Out
FLAG -32 64 nfb
IOPIN -32 64 Out
FLAG 2464 336 xp
FLAG 2080 176 pwrgnd
IOPIN 2080 176 Out
FLAG -512 176 sgnd
IOPIN -512 176 Out
FLAG -416 176 sgnd
IOPIN -416 176 Out
FLAG 832 -1440 sgnd
IOPIN 832 -1440 Out
FLAG 1504 -896 pwrgnd
IOPIN 1504 -896 Out
FLAG 1728 -320 preout
IOPIN 1728 -320 Out
FLAG 3712 128 clip
IOPIN 3712 128 Out
FLAG 3712 320 dgnd
IOPIN 3712 320 Out
FLAG 3712 32 dvcc
IOPIN 3712 32 In
FLAG -512 -400 sgnd
IOPIN -512 -400 Out
FLAG -512 -624 sinus
IOPIN -512 -624 Out
FLAG 928 832 pwrgnd
IOPIN 928 832 Out
FLAG 256 352 pgnd
IOPIN 256 352 Out
FLAG -32 -512 pgnd
IOPIN -32 -512 Out
FLAG 256 -512 pgnd
IOPIN 256 -512 Out
FLAG 1504 832 pwrgnd
IOPIN 1504 832 Out
FLAG 2848 -1536 vcc+
IOPIN 2848 -1536 Out
FLAG 2848 -768 vcc-
IOPIN 2848 -768 Out
FLAG 2848 -1248 gspk
IOPIN 2848 -1248 In
FLAG 2848 -960 pwrgnd
IOPIN 2848 -960 In
FLAG 2848 -1152 pgnd
IOPIN 2848 -1152 In
FLAG 2848 -1440 sgnd
IOPIN 2848 -1440 In
FLAG 1664 -1440 out
IOPIN 1664 -1440 In
FLAG 2368 -32 SPKP
IOPIN 2368 -32 Out
FLAG 2048 -1536 SPKP
IOPIN 2048 -1536 In
FLAG 3328 128 out1
IOPIN 3328 128 In
FLAG 3552 -960 dgnd
IOPIN 3552 -960 In
FLAG 3712 704 vcc-
IOPIN 3712 704 In
FLAG 3712 -256 vcc+
IOPIN 3712 -256 In
FLAG 2944 -256 dvcc
IOPIN 2944 -256 Out
FLAG 2944 32 dgnd
IOPIN 2944 32 Out
FLAG 2848 -1056 pwrgnd
IOPIN 2848 -1056 In
FLAG 832 832 pwrgnd
IOPIN 832 832 Out
FLAG -416 -624 impulse
IOPIN -416 -624 Out
FLAG 2848 -864 pwrgnd
IOPIN 2848 -864 In
FLAG 3456 -544 0
FLAG 2368 432 AC1
IOPIN 2368 432 BiDir
FLAG 2560 432 AC2
IOPIN 2560 432 BiDir
FLAG 1888 -32 AC1
IOPIN 1888 -32 BiDir
FLAG 1920 -32 AC2
IOPIN 1920 -32 BiDir
FLAG 2464 432 pwrgnd
IOPIN 2464 432 Out
FLAG 2416 -1536 SPK+
FLAG 2416 -1248 SPK-
FLAG 2848 -1344 gspk
IOPIN 2848 -1344 In
FLAG -320 -624 imd
IOPIN -320 -624 Out
FLAG 1664 -1344 preout
IOPIN 1664 -1344 In
FLAG 1504 -800 pwrgnd
IOPIN 1504 -800 Out
FLAG 1504 736 pwrgnd
IOPIN 1504 736 Out
FLAG 256 -32 sgnd
IOPIN 256 -32 Out
FLAG -512 -128 sinus
IOPIN -512 -128 Out
FLAG 6576 -1376 vcc+
IOPIN 6576 -1376 In
FLAG 6576 544 vcc-
IOPIN 6576 544 In
FLAG 6928 -608 out2
IOPIN 6928 -608 Out
FLAG 4816 -320 nfb2
IOPIN 4816 -320 Out
FLAG 6928 -208 pwrgnd
IOPIN 6928 -208 Out
FLAG 4336 -208 sgnd
IOPIN 4336 -208 Out
FLAG 4432 -208 sgnd
IOPIN 4432 -208 Out
FLAG 6352 -1280 pwrgnd
IOPIN 6352 -1280 Out
FLAG 6576 -704 preout2
IOPIN 6576 -704 Out
FLAG 5776 448 pwrgnd
IOPIN 5776 448 Out
FLAG 5104 -32 pgnd
IOPIN 5104 -32 Out
FLAG 4816 -896 pgnd
IOPIN 4816 -896 Out
FLAG 5104 -896 pgnd
IOPIN 5104 -896 Out
FLAG 6352 448 pwrgnd
IOPIN 6352 448 Out
FLAG 7216 -416 SPKP2
IOPIN 7216 -416 Out
FLAG 5680 448 pwrgnd
IOPIN 5680 448 Out
FLAG 6352 -1184 pwrgnd
IOPIN 6352 -1184 Out
FLAG 6352 352 pwrgnd
IOPIN 6352 352 Out
FLAG 5104 -416 sgnd
IOPIN 5104 -416 Out
FLAG 4336 -512 input2
IOPIN 4336 -512 In
FLAG 7344 -1424 nfb2
IOPIN 7344 -1424 Out
FLAG 7344 -1328 sgnd
IOPIN 7344 -1328 Out
FLAG 8176 -1328 out2
IOPIN 8176 -1328 In
FLAG 8176 -1232 preout2
IOPIN 8176 -1232 In
FLAG 2048 -1248 SPKP2
IOPIN 2048 -1248 In
FLAG -576 -624 sinus
IOPIN -576 -624 Out
FLAG -656 -624 input2
IOPIN -656 -624 Out
DATAFLAG 448 -608 "-Ic(Q12)"
DATAFLAG 2800 -256 ""
DATAFLAG 1408 -512 "ic(q16)"
DATAFLAG 1344 -992 ""
DATAFLAG 1344 928 ""
DATAFLAG 1216 -656 "Ic(Q18)"
DATAFLAG -224 -608 "-Ic(Q1)"
DATAFLAG 1632 -32 ""
DATAFLAG 5296 -992 "-Ic(Q12)"
DATAFLAG 6256 -896 "ic(q16)"
DATAFLAG 6192 -1376 ""
DATAFLAG 6192 544 ""
DATAFLAG 6064 -1040 "Ic(Q18)"
DATAFLAG 4624 -992 "-Ic(Q1)"
DATAFLAG 6480 -416 ""
SYMBOL res 1136 -1456 R90
WINDOW 0 0 56 VBottom 2
WINDOW 3 32 56 VTop 2
SYMATTR InstName R12
SYMATTR Value {nfb1}
SYMBOL voltage 3568 -576 R90
WINDOW 123 0 0 Left 2
WINDOW 3 -94 177 Invisible 2
SYMATTR Value SINE(0 {supplyVLT*sqrt(2)} 50 0 0 {phi})
SYMATTR SpiceLine Rser={rser}
SYMATTR InstName V2
SYMBOL current 2464 320 R180
WINDOW 0 24 77 Left 2
WINDOW 3 24 0 Invisible 2
WINDOW 123 -71 178 Left 2
WINDOW 39 0 0 Left 2
SYMATTR InstName Ii
SYMATTR Value 0
SYMATTR Value2 AC {u(prb)}
SYMBOL voltage 2464 224 R270
WINDOW 0 32 56 VTop 2
WINDOW 3 -32 56 Invisible 2
WINDOW 123 -97 96 VBottom 2
WINDOW 39 -32 56 VBottom 2
SYMATTR InstName Vi
SYMATTR Value 0
SYMATTR Value2 AC {u(-prb)}
SYMBOL pnp -384 112 M180
WINDOW 0 77 84 Left 2
WINDOW 3 75 52 Left 2
SYMATTR InstName Q11
SYMATTR Value CA_BC560C
SYMBOL res -528 -48 R0
SYMATTR InstName R33
SYMATTR Value {nfb1}
SYMBOL res -432 64 R0
SYMATTR InstName R34
SYMATTR Value {nfb2}
SYMBOL res -336 816 R0
SYMATTR InstName R2
SYMATTR Value 100
SYMBOL res -144 816 R0
SYMATTR InstName R3
SYMATTR Value 100
SYMBOL res -336 -128 R0
SYMATTR InstName R9
SYMATTR Value 100
SYMBOL res -144 -128 R0
SYMATTR InstName R10
SYMATTR Value 100
SYMBOL res 432 -992 R0
SYMATTR InstName R16
SYMATTR Value 62
SYMBOL pnp 384 -656 M180
SYMATTR InstName Q12
SYMATTR Value 2SA1381F
SYMBOL schottky 1680 -432 M180
WINDOW 0 24 72 Left 2
WINDOW 3 24 0 Left 2
SYMATTR InstName D7
SYMATTR Value 1N5404
SYMATTR Description Diode
SYMATTR Type diode
SYMBOL schottky 1680 432 M180
WINDOW 0 24 72 Left 2
WINDOW 3 24 0 Left 2
SYMATTR InstName D8
SYMATTR Value 1N5404
SYMATTR Description Diode
SYMATTR Type diode
SYMBOL ind2 2176 -16 R270
WINDOW 0 32 56 VTop 2
WINDOW 3 4 56 VBottom 2
SYMATTR InstName LTRF
SYMATTR Value 2µ
SYMATTR SpiceLine Rser=10m Rpar=3meg Cpar=1p
SYMATTR Type ind
SYMBOL res 2176 80 R270
WINDOW 0 32 56 VTop 2
WINDOW 3 0 56 VBottom 2
SYMATTR InstName R19
SYMATTR Value 2.2
SYMBOL res 1408 -1456 R90
WINDOW 0 0 56 VBottom 2
WINDOW 3 32 56 VTop 2
SYMATTR InstName R20
SYMATTR Value {nfb2}
SYMBOL voltage 2464 224 R90
WINDOW 0 -32 56 VBottom 2
WINDOW 3 32 56 Invisible 2
WINDOW 123 0 0 Left 2
WINDOW 39 0 0 Left 2
SYMATTR InstName V1
SYMATTR Value 0
SYMBOL schottky 3632 -688 M180
WINDOW 0 24 72 Left 2
WINDOW 3 -14 -112 Left 2
SYMATTR InstName D6
SYMATTR Value GBPC3502
SYMATTR Description Diode
SYMATTR Type diode
SYMBOL schottky 3152 -752 R0
WINDOW 3 -144 95 Left 2
SYMATTR Value GBPC3502
SYMATTR InstName D9
SYMATTR Description Diode
SYMATTR Type diode
SYMBOL voltage 3456 -576 M270
WINDOW 123 0 0 Left 2
WINDOW 3 -96 -62 Invisible 2
SYMATTR Value SINE(0 {supplyVLT*sqrt(2)} 50 0 0 {phi})
SYMATTR SpiceLine Rser={rser}
SYMATTR InstName V3
SYMBOL res 2064 -48 R0
SYMATTR InstName R54
SYMATTR Value 10
SYMBOL res 2448 -1456 R0
SYMATTR InstName R60
SYMATTR Value {Zreal}
SYMBOL ind 2448 -1360 R0
SYMATTR InstName L19
SYMATTR Value {Zimg}
SYMATTR SpiceLine Cpar=10p
SYMBOL voltage 2464 336 M0
WINDOW 123 0 0 Left 2
WINDOW 39 0 0 Left 2
WINDOW 3 24 96 Invisible 2
SYMATTR Value 0
SYMATTR InstName V18
SYMBOL npn 1344 -368 R0
SYMATTR InstName Q16
SYMATTR Value MJL3281A
SYMBOL pnp 1152 496 M180
SYMATTR InstName Q17
SYMATTR Value 2SA1837
SYMBOL npn 1152 -560 R0
SYMATTR InstName Q18
SYMATTR Value 2SC4793
SYMBOL pnp 1344 304 M180
SYMATTR InstName Q19
SYMATTR Value MJL1302A
SYMBOL res 1328 240 R90
WINDOW 0 0 56 VBottom 2
WINDOW 3 32 56 VTop 2
SYMATTR InstName R22
SYMATTR Value 2
SYMBOL res 1328 -336 R90
WINDOW 0 0 56 VBottom 2
WINDOW 3 32 56 VTop 2
SYMATTR InstName R23
SYMATTR Value 2
SYMBOL ind2 1392 -144 R0
SYMATTR InstName L10
SYMATTR Value 70n
SYMATTR SpiceLine Rser=220m Cpar=3p
SYMATTR Type ind
SYMBOL ind2 1392 -32 R0
SYMATTR InstName L11
SYMATTR Value 70n
SYMATTR SpiceLine Rser=220m Cpar=3p
SYMATTR Type ind
SYMBOL res 1136 -528 R90
WINDOW 0 0 56 VBottom 2
WINDOW 3 32 56 VTop 2
SYMATTR InstName R27
SYMATTR Value 22
SYMBOL res 1136 432 R90
WINDOW 0 0 56 VBottom 2
WINDOW 3 32 56 VTop 2
SYMATTR InstName R30
SYMATTR Value 22
SYMBOL res 240 816 R0
SYMATTR InstName R24
SYMATTR Value 510
SYMBOL cap 2064 80 R0
SYMATTR InstName C24
SYMATTR Value 100n
SYMATTR SpiceLine Rser=700m Lser=7n Rpar=4.4meg Cpar=1p
SYMBOL polcap 912 -1456 R90
WINDOW 0 0 32 VBottom 2
WINDOW 3 32 32 VTop 2
SYMATTR InstName C2
SYMATTR Value 2200µ
SYMATTR SpiceLine V=6.3 Irms=1.44 Rser=0.09 Lser=5.5n Rpar=110k Cpar=3p mfg="Nichicon" pn="UPW0J222MPD6TD" type="Al electrolytic"
SYMATTR Description Capacitor
SYMATTR Type cap
SYMBOL polcap 3344 -784 R90
WINDOW 0 0 32 VBottom 2
WINDOW 3 32 32 VTop 2
SYMATTR InstName C6
SYMATTR Value 6800µ
SYMATTR SpiceLine V=50 Irms=2.5 Rser=0.08 Lser=20n Rpar=40k Cpar=3p mfg="Nichicon" pn="UVZ1H682MRD" type="Al electrolytic"
SYMATTR Description Capacitor
SYMATTR Type cap
SYMBOL res -240 -992 R0
SYMATTR InstName R47
SYMATTR Value 100
SYMBOL res 432 48 R0
WINDOW 3 36 76 Invisible 2
SYMATTR Value {1+(500*BIAS)}
SYMATTR InstName PBIAS1
SYMBOL res 432 -432 R0
SYMATTR InstName R52
SYMATTR Value 1k2
SYMBOL res 544 -528 R90
WINDOW 0 0 56 VBottom 2
WINDOW 3 32 56 VTop 2
SYMATTR InstName R53
SYMATTR Value 12
SYMBOL schottky 3728 -688 M180
WINDOW 0 24 72 Left 2
WINDOW 3 -112 -78 Left 2
SYMATTR InstName D10
SYMATTR Value GBPC3502
SYMATTR Description Diode
SYMATTR Type diode
SYMBOL schottky 3248 -752 R0
WINDOW 3 -239 65 Left 2
SYMATTR Value GBPC3502
SYMATTR InstName D11
SYMATTR Description Diode
SYMATTR Type diode
SYMBOL ind2 2864 -1520 R270
WINDOW 0 32 56 VTop 2
WINDOW 3 5 56 VBottom 2
SYMATTR InstName LVCC
SYMATTR Value {con1_len*20n}
SYMATTR SpiceLine Rser={con1_len*.5m}
SYMATTR Type ind
SYMBOL ind2 2864 -752 R270
WINDOW 0 32 56 VTop 2
WINDOW 3 5 56 VBottom 2
SYMATTR InstName LVEE
SYMATTR Value {con1_len*20n}
SYMATTR SpiceLine Rser={con1_len*.5m}
SYMATTR Type ind
SYMBOL diode 368 464 R270
WINDOW 0 32 32 VTop 2
WINDOW 3 0 32 VBottom 2
SYMATTR InstName D2
SYMATTR Value BAV21
SYMBOL res 1600 -1456 R90
WINDOW 0 0 56 VBottom 2
WINDOW 3 32 56 VTop 2
SYMATTR InstName R46
SYMATTR Value 100
SYMBOL npn 3360 368 R0
SYMATTR InstName Q34
SYMATTR Value CA_2N5551C
SYMBOL res 3312 416 R0
SYMATTR InstName R70
SYMATTR Value 12k
SYMBOL res 3312 224 R0
SYMATTR InstName R71
SYMATTR Value 39k
SYMBOL res 3408 224 R0
SYMATTR InstName R72
SYMATTR Value 39k
SYMBOL diode 3344 240 R270
WINDOW 0 32 32 VTop 2
WINDOW 3 37 -83 VBottom 2
SYMATTR InstName D21
SYMATTR Value MMSD4148
SYMBOL res 3408 112 R0
SYMATTR InstName R73
SYMATTR Value 39k
SYMBOL res 3408 -160 R0
SYMATTR InstName R74
SYMATTR Value 12k
SYMBOL pnp 3456 80 M180
SYMATTR InstName Q35
SYMATTR Value CA_2N5401C
SYMBOL res 3504 112 R0
SYMATTR InstName R75
SYMATTR Value 47k
SYMBOL npn 3552 176 R0
SYMATTR InstName Q36
SYMATTR Value BC846B
SYMBOL res 3504 224 R0
SYMATTR InstName R76
SYMATTR Value 4k7
SYMBOL res 3600 16 R0
SYMATTR InstName R77
SYMATTR Value 4k7
SYMBOL pnp 3360 656 M180
SYMATTR InstName Q37
SYMATTR Value CA_2N5401C
SYMBOL npn 3456 -208 R0
SYMATTR InstName Q38
SYMATTR Value CA_2N5551C
SYMBOL npn 384 592 R0
SYMATTR InstName Q3
SYMATTR Value 2SC3503F
SYMBOL res 432 816 R0
SYMATTR InstName R6
SYMATTR Value 15
SYMBOL cap -528 144 M180
WINDOW 0 24 56 Left 2
WINDOW 3 24 8 Left 2
SYMATTR InstName C4
SYMATTR Value 4n7
SYMBOL voltage -512 -528 R0
WINDOW 123 24 44 Left 2
WINDOW 39 0 0 Left 2
WINDOW 3 24 96 Invisible 2
SYMATTR Value SINE(0 {vinput} {freq})
SYMATTR InstName V11
SYMBOL npn 224 688 M0
SYMATTR InstName Q13
SYMATTR Value BC846B
SYMBOL res 448 720 R90
WINDOW 0 0 56 VBottom 2
WINDOW 3 32 56 VTop 2
SYMATTR InstName R63
SYMATTR Value 1k
SYMBOL res 240 -720 R0
SYMATTR InstName R4
SYMATTR Value 7k5
SYMBOL res 1200 -144 R0
SYMATTR InstName R1
SYMATTR Value 47
SYMBOL pnp -160 -656 R180
SYMATTR InstName Q1
SYMATTR Value 2SA1381F
SYMBOL pnp -64 112 R180
WINDOW 0 77 84 Left 2
WINDOW 3 75 52 Left 2
SYMATTR InstName Q7
SYMATTR Value CA_BC560C
SYMBOL npn 480 -176 R0
SYMATTR InstName Q21
SYMATTR Value MJE340
SYMBOL cap 336 240 R90
WINDOW 0 0 32 VBottom 2
WINDOW 3 32 32 VTop 2
SYMATTR InstName C5
SYMATTR Value 180p
SYMATTR SpiceLine Rser=140m Lser=3n Rpar=7.4meg
SYMBOL res 1136 912 R90
WINDOW 0 0 56 VBottom 2
WINDOW 3 32 56 VTop 2
SYMATTR InstName R17
SYMATTR Value 10
SYMBOL ind2 2864 -1232 R270
WINDOW 0 32 56 VTop 2
WINDOW 3 5 56 VBottom 2
SYMATTR InstName LGSPK2
SYMATTR Value {con1_len*20n}
SYMATTR SpiceLine Rser={con1_len*.5m}
SYMATTR Type ind
SYMBOL ind2 2864 -944 R270
WINDOW 0 32 56 VTop 2
WINDOW 3 5 56 VBottom 2
SYMATTR InstName LPWRGND2
SYMATTR Value {con1_len*20n}
SYMATTR SpiceLine Rser={con1_len*.5m}
SYMATTR Type ind
SYMBOL ind2 2864 -1136 R270
WINDOW 0 32 56 VTop 2
WINDOW 3 5 56 VBottom 2
SYMATTR InstName LPGND
SYMATTR Value {con1_len*20n}
SYMATTR SpiceLine Rser={con1_len*.5m}
SYMATTR Type ind
SYMBOL ind2 2864 -1424 R270
WINDOW 0 32 56 VTop 2
WINDOW 3 5 56 VBottom 2
SYMATTR InstName LSGND
SYMATTR Value {con1_len*20n}
SYMATTR SpiceLine Rser={con1_len*.5m}
SYMATTR Type ind
SYMBOL res 3088 -1552 R90
WINDOW 0 0 56 VBottom 2
WINDOW 3 32 56 VTop 2
SYMATTR InstName R18
SYMATTR Value 25m
SYMBOL res 3088 -1264 R90
WINDOW 0 0 56 VBottom 2
WINDOW 3 32 56 VTop 2
SYMATTR InstName R26
SYMATTR Value 25m
SYMBOL res 3088 -976 R90
WINDOW 0 0 56 VBottom 2
WINDOW 3 32 56 VTop 2
SYMATTR InstName R28
SYMATTR Value 25m
SYMBOL res 3088 -1168 R90
WINDOW 0 0 56 VBottom 2
WINDOW 3 32 56 VTop 2
SYMATTR InstName R29
SYMATTR Value 25m
SYMBOL res 3088 -1456 R90
WINDOW 0 0 56 VBottom 2
WINDOW 3 32 56 VTop 2
SYMATTR InstName R32
SYMATTR Value 25m
SYMBOL res 3088 -784 R90
WINDOW 0 0 56 VBottom 2
WINDOW 3 32 56 VTop 2
SYMATTR InstName R38
SYMATTR Value 25m
SYMBOL ind 3440 -976 R0
SYMATTR InstName L4
SYMATTR Value 2n
SYMATTR SpiceLine Rser=1m
SYMBOL ind 3440 -1168 R0
SYMATTR InstName L5
SYMATTR Value 2n
SYMATTR SpiceLine Rser=1m
SYMBOL ind 3440 -1264 R0
SYMATTR InstName L6
SYMATTR Value 2n
SYMATTR SpiceLine Rser=1m
SYMBOL ind 3440 -1456 R0
SYMATTR InstName L18
SYMATTR Value 2n
SYMATTR SpiceLine Rser=1m
SYMBOL ind2 2064 -1520 R270
WINDOW 0 32 56 VTop 2
WINDOW 3 5 56 VBottom 2
SYMATTR InstName LSPKP
SYMATTR Value {con2_len*20n}
SYMATTR SpiceLine Rser={con2_len*.5m}
SYMATTR Type ind
SYMBOL ind2 2064 -1232 R270
WINDOW 0 32 56 VTop 2
WINDOW 3 5 56 VBottom 2
SYMATTR InstName LSPKN1
SYMATTR Value {con2_len*20n}
SYMATTR SpiceLine Rser={con2_len*.5m}
SYMATTR Type ind
SYMBOL res 2288 -1552 R90
WINDOW 0 0 56 VBottom 2
WINDOW 3 32 56 VTop 2
SYMATTR InstName R41
SYMATTR Value 25m
SYMBOL res 2288 -1264 R90
WINDOW 0 0 56 VBottom 2
WINDOW 3 32 56 VTop 2
SYMATTR InstName R43
SYMATTR Value 25m
SYMBOL ind2 2864 -848 R270
WINDOW 0 32 56 VTop 2
WINDOW 3 5 56 VBottom 2
SYMATTR InstName LDGND
SYMATTR Value {con1_len*20n}
SYMATTR SpiceLine Rser={con1_len*.5m}
SYMATTR Type ind
SYMBOL res 3088 -880 R90
WINDOW 0 0 56 VBottom 2
WINDOW 3 32 56 VTop 2
SYMATTR InstName R31
SYMATTR Value 25m
SYMBOL cap 2736 -48 R0
SYMATTR InstName C7
SYMATTR Value 220µ
SYMATTR SpiceLine Rser=100m Lser=50n Rpar=100k Cpar=3p
SYMBOL voltage 2848 -80 R0
WINDOW 123 0 0 Left 2
SYMATTR InstName V5
SYMATTR Value 5
SYMATTR SpiceLine Rser=10
SYMBOL ind2 2864 -1040 R270
WINDOW 0 32 56 VTop 2
WINDOW 3 5 56 VBottom 2
SYMATTR InstName LPWRGND1
SYMATTR Value {con1_len*20n}
SYMATTR SpiceLine Rser={con1_len*.5m}
SYMATTR Type ind
SYMBOL res 3088 -1072 R90
WINDOW 0 0 56 VBottom 2
WINDOW 3 32 56 VTop 2
SYMATTR InstName R25
SYMATTR Value 25m
SYMBOL cap 816 848 R0
SYMATTR InstName C10
SYMATTR Value 100n
SYMATTR SpiceLine Rser=700m Lser=7n Rpar=4.4meg Cpar=1p
SYMBOL voltage -416 -528 R0
WINDOW 3 24 96 Invisible 2
WINDOW 123 0 0 Left 2
WINDOW 39 0 0 Left 2
SYMATTR Value PULSE(0 {vinput/2} 1u 1n 1n {1/(freq*2)} {1/freq})
SYMATTR InstName V7
SYMBOL voltage -416 -624 R0
WINDOW 3 24 96 Invisible 2
WINDOW 123 0 0 Left 2
WINDOW 39 0 0 Left 2
SYMATTR Value PULSE(0 {-vinput/2} {1u+(1/(freq*2))} 1n 1n {1/(freq*2)} {1/freq})
SYMATTR InstName V8
SYMBOL npn 800 -272 M0
SYMATTR InstName Q22
SYMATTR Value BC846B
SYMBOL pnp 800 208 R180
SYMATTR InstName Q24
SYMATTR Value BC856B