Version 4
SHEET 1 6124 2336
WIRE 1472 -1568 1280 -1568
WIRE 2304 -1536 2272 -1536
WIRE 2416 -1536 2384 -1536
WIRE 2544 -1536 2496 -1536
WIRE 2592 -1536 2544 -1536
WIRE 2944 -1536 2912 -1536
WIRE 3056 -1536 3024 -1536
WIRE 3712 -1536 3136 -1536
WIRE 2592 -1520 2592 -1536
WIRE 992 -1472 976 -1472
WIRE 1008 -1472 992 -1472
WIRE 1296 -1472 1280 -1472
WIRE 1376 -1472 1360 -1472
WIRE 1472 -1472 1472 -1568
WIRE 1472 -1472 1456 -1472
WIRE 1568 -1472 1472 -1472
WIRE 1664 -1472 1648 -1472
WIRE 1856 -1472 1744 -1472
WIRE 992 -1456 992 -1472
WIRE 2944 -1440 2912 -1440
WIRE 3056 -1440 3024 -1440
WIRE 3424 -1440 3136 -1440
WIRE 2592 -1424 2592 -1440
WIRE 1472 -1376 1472 -1472
WIRE 1488 -1376 1472 -1376
WIRE 1568 -1376 1552 -1376
WIRE 1664 -1376 1664 -1472
WIRE 1664 -1376 1648 -1376
WIRE 992 -1360 992 -1376
WIRE 992 -1344 992 -1360
WIRE 2944 -1344 2912 -1344
WIRE 3056 -1344 3024 -1344
WIRE 3424 -1344 3424 -1360
WIRE 3424 -1344 3136 -1344
WIRE 2304 -1328 2272 -1328
WIRE 2416 -1328 2384 -1328
WIRE 2544 -1328 2496 -1328
WIRE 2592 -1328 2592 -1344
WIRE 2592 -1328 2544 -1328
WIRE 896 -1264 896 -1472
WIRE 1088 -1264 1088 -1472
WIRE 2944 -1248 2912 -1248
WIRE 3056 -1248 3024 -1248
WIRE 3424 -1248 3424 -1264
WIRE 3424 -1248 3136 -1248
WIRE 2944 -1152 2912 -1152
WIRE 3056 -1152 3024 -1152
WIRE 3232 -1152 3136 -1152
WIRE 0 -1088 -192 -1088
WIRE 192 -1088 0 -1088
WIRE 384 -1088 192 -1088
WIRE 576 -1088 384 -1088
WIRE 1344 -1088 576 -1088
WIRE 1536 -1088 1344 -1088
WIRE 1728 -1088 1536 -1088
WIRE 1824 -1088 1728 -1088
WIRE 1920 -1088 1824 -1088
WIRE 2016 -1088 1920 -1088
WIRE -192 -1072 -192 -1088
WIRE 576 -1072 576 -1088
WIRE 2944 -1056 2912 -1056
WIRE 3056 -1056 3024 -1056
WIRE 3232 -1056 3232 -1152
WIRE 3232 -1056 3136 -1056
WIRE 3424 -1056 3424 -1168
WIRE 3424 -1056 3232 -1056
WIRE 1344 -976 1344 -1088
WIRE 1536 -976 1536 -1088
WIRE 2944 -960 2912 -960
WIRE 3056 -960 3024 -960
WIRE 3232 -960 3232 -1056
WIRE 3232 -960 3136 -960
WIRE 0 -944 0 -1088
WIRE 384 -944 384 -1088
WIRE -192 -896 -192 -992
WIRE -176 -896 -192 -896
WIRE -64 -896 -96 -896
WIRE 480 -896 448 -896
WIRE 576 -896 576 -992
WIRE 576 -896 560 -896
WIRE 1344 -896 1344 -912
WIRE 1536 -896 1536 -912
WIRE 1728 -896 1728 -1088
WIRE 1920 -896 1920 -1088
WIRE 2944 -864 2912 -864
WIRE 3056 -864 3024 -864
WIRE 3328 -864 3136 -864
WIRE 3424 -864 3424 -976
WIRE 3424 -864 3408 -864
WIRE 3440 -864 3424 -864
WIRE 3712 -864 3712 -1536
WIRE 3712 -864 3520 -864
WIRE -192 -848 -192 -896
WIRE 576 -848 576 -896
WIRE 0 -800 0 -848
WIRE 0 -800 -128 -800
WIRE 384 -800 384 -848
WIRE 512 -800 384 -800
WIRE 192 -784 192 -1088
WIRE 3136 -768 3136 -864
WIRE 3344 -768 3136 -768
WIRE 3424 -768 3424 -864
WIRE 3424 -768 3408 -768
WIRE 3440 -768 3424 -768
WIRE 3712 -768 3712 -864
WIRE 3712 -768 3504 -768
WIRE 0 -704 0 -800
WIRE 192 -704 192 -720
WIRE 384 -704 384 -720
WIRE 384 -704 192 -704
WIRE -192 -672 -192 -752
WIRE 576 -672 576 -752
WIRE 3136 -672 3136 -768
WIRE 3344 -672 3136 -672
WIRE 3424 -672 3424 -768
WIRE 3424 -672 3408 -672
WIRE 3440 -672 3424 -672
WIRE 3712 -672 3712 -768
WIRE 3712 -672 3504 -672
WIRE 1728 -656 1728 -896
WIRE 0 -608 0 -624
WIRE 384 -608 384 -624
WIRE 576 -608 576 -672
WIRE 672 -608 576 -608
WIRE 768 -608 752 -608
WIRE 960 -608 768 -608
WIRE 1152 -608 960 -608
WIRE 1552 -608 1152 -608
WIRE 1664 -608 1632 -608
WIRE 576 -592 576 -608
WIRE 1152 -592 1152 -608
WIRE 3136 -576 3136 -672
WIRE 3440 -576 3136 -576
WIRE 3712 -576 3712 -672
WIRE 3712 -576 3504 -576
WIRE 1920 -560 1920 -896
WIRE -192 -512 -192 -672
WIRE 0 -512 -192 -512
WIRE 1728 -512 1728 -560
WIRE 1744 -512 1728 -512
WIRE 1856 -512 1824 -512
WIRE -192 -496 -192 -512
WIRE 0 -496 0 -512
WIRE 3136 -480 3136 -576
WIRE 3344 -480 3136 -480
WIRE 3424 -480 3424 -672
WIRE 3424 -480 3408 -480
WIRE 3440 -480 3424 -480
WIRE 3712 -480 3712 -576
WIRE 3712 -480 3504 -480
WIRE 768 -464 768 -608
WIRE 1152 -464 1152 -528
WIRE 576 -416 576 -512
WIRE 704 -416 576 -416
WIRE 1344 -416 1216 -416
WIRE 1536 -416 1344 -416
WIRE 1744 -416 1536 -416
WIRE 1920 -416 1920 -464
WIRE 1920 -416 1824 -416
WIRE 1536 -400 1536 -416
WIRE 1920 -400 1920 -416
WIRE 2400 -400 2400 -416
WIRE 3136 -384 3136 -480
WIRE 3136 -384 3040 -384
WIRE 3232 -384 3136 -384
WIRE 3328 -384 3232 -384
WIRE 3616 -384 3520 -384
WIRE 3712 -384 3712 -480
WIRE 3712 -384 3616 -384
WIRE 3808 -384 3712 -384
WIRE -192 -368 -192 -416
WIRE 0 -368 0 -416
WIRE 3040 -368 3040 -384
WIRE 3136 -368 3136 -384
WIRE 3232 -368 3232 -384
WIRE 3328 -368 3328 -384
WIRE 3520 -368 3520 -384
WIRE 3616 -368 3616 -384
WIRE 3712 -368 3712 -384
WIRE 3808 -368 3808 -384
WIRE -576 -320 -576 -512
WIRE -560 -320 -576 -320
WIRE -480 -320 -496 -320
WIRE -384 -320 -400 -320
WIRE -288 -320 -384 -320
WIRE -256 -320 -288 -320
WIRE 192 -320 64 -320
WIRE 576 -320 576 -416
WIRE 1344 -320 1344 -416
WIRE 1536 -320 1536 -336
WIRE 1728 -320 1728 -512
WIRE -576 -304 -576 -320
WIRE -384 -304 -384 -320
WIRE -288 -304 -288 -320
WIRE 960 -304 960 -608
WIRE 3040 -288 3040 -304
WIRE 3136 -288 3136 -304
WIRE 3136 -288 3040 -288
WIRE 3232 -288 3232 -304
WIRE 3328 -288 3328 -304
WIRE 3328 -288 3232 -288
WIRE 3520 -288 3520 -304
WIRE 3616 -288 3616 -304
WIRE 3616 -288 3520 -288
WIRE 3712 -288 3712 -304
WIRE 3808 -288 3808 -304
WIRE 3808 -288 3712 -288
WIRE 1152 -224 1152 -368
WIRE 1152 -224 384 -224
WIRE 1344 -224 1344 -240
WIRE 1344 -224 1152 -224
WIRE 1536 -224 1536 -240
WIRE 1536 -224 1344 -224
WIRE 1632 -224 1536 -224
WIRE 1824 -224 1632 -224
WIRE 1920 -224 1920 -320
WIRE 1920 -224 1824 -224
WIRE 1936 -224 1920 -224
WIRE 2016 -224 2016 -320
WIRE 2112 -224 2112 -320
WIRE 2208 -224 2208 -416
WIRE 2208 -224 2192 -224
WIRE 2400 -224 2400 -336
WIRE 2400 -224 2208 -224
WIRE 2496 -224 2400 -224
WIRE 2512 -224 2496 -224
WIRE 2592 -224 2592 -416
WIRE -576 -208 -576 -224
WIRE -384 -208 -384 -240
WIRE -288 -208 -288 -224
WIRE 384 -208 384 -224
WIRE 576 -208 576 -240
WIRE 1344 -208 1344 -224
WIRE 1536 -208 1536 -224
WIRE 2208 -208 2208 -224
WIRE 3136 -192 3136 -288
WIRE 3712 -192 3712 -288
WIRE 3712 -192 3136 -192
WIRE 1920 -128 1920 -224
WIRE 2496 -128 2496 -224
WIRE 2512 -128 2496 -128
WIRE 2592 -128 2592 -224
WIRE 1536 -112 1536 -128
WIRE 2208 -112 2208 -128
WIRE 2400 -112 2400 -224
WIRE 3328 -96 3328 -288
WIRE 3520 -96 3520 -288
WIRE 3520 -96 3328 -96
WIRE 3712 -96 3520 -96
WIRE 1152 -80 1152 -224
WIRE 208 -32 192 -32
WIRE 304 -32 288 -32
WIRE 384 -32 384 -128
WIRE 384 -32 368 -32
WIRE 400 -32 384 -32
WIRE 576 -32 576 -128
WIRE 576 -32 464 -32
WIRE 1344 -32 1344 -128
WIRE 1344 -32 1216 -32
WIRE 1536 -32 1536 -48
WIRE 1536 -32 1344 -32
WIRE 1744 -32 1536 -32
WIRE 1920 -32 1920 -48
WIRE 1920 -32 1824 -32
WIRE 2208 -32 2208 -48
WIRE 2400 -32 2400 -48
WIRE -576 -16 -576 -32
WIRE 3136 0 3136 -192
WIRE 3440 0 3136 0
WIRE 3712 0 3712 -96
WIRE 3712 0 3504 0
WIRE 1920 16 1920 -32
WIRE 1728 64 1728 -240
WIRE 1744 64 1728 64
WIRE 1856 64 1824 64
WIRE 1152 80 1152 16
WIRE 3136 96 3136 0
WIRE 3344 96 3136 96
WIRE 3424 96 3424 -480
WIRE 3424 96 3408 96
WIRE 3440 96 3424 96
WIRE 3712 96 3712 0
WIRE 3712 96 3504 96
WIRE 1728 112 1728 64
WIRE -576 160 -576 64
WIRE 192 160 192 -32
WIRE 400 160 192 160
WIRE 576 160 576 -32
WIRE 576 160 464 160
WIRE 768 160 768 -368
WIRE 768 160 576 160
WIRE 960 160 960 -240
WIRE 960 160 768 160
WIRE 1152 160 1152 144
WIRE 1152 160 960 160
WIRE 1552 160 1152 160
WIRE 1664 160 1632 160
WIRE 3136 192 3136 96
WIRE 3328 192 3136 192
WIRE 3424 192 3424 96
WIRE 3424 192 3408 192
WIRE 3440 192 3424 192
WIRE 3712 192 3712 96
WIRE 3712 192 3520 192
WIRE 3424 224 3424 192
WIRE 480 256 384 256
WIRE 2304 256 2304 240
WIRE 2400 256 2400 240
WIRE 384 304 384 256
WIRE -192 352 -192 -272
WIRE 192 352 192 160
WIRE 192 352 -192 352
WIRE 320 352 192 352
WIRE 2208 352 2208 240
WIRE 2304 352 2304 336
WIRE 2400 352 2400 336
WIRE 576 400 576 160
WIRE 0 448 0 -272
WIRE 0 448 -96 448
WIRE 384 448 384 400
WIRE 512 448 384 448
WIRE 2208 448 2208 432
WIRE 2304 448 2304 432
WIRE 2400 448 2400 432
WIRE -192 496 -192 352
WIRE 0 496 0 448
WIRE 192 496 192 352
WIRE -96 544 -96 448
WIRE -96 544 -128 544
WIRE -64 544 -96 544
WIRE 288 544 256 544
WIRE 576 544 576 496
WIRE 576 544 368 544
WIRE 768 560 768 544
WIRE 960 560 960 544
WIRE 1344 560 1344 544
WIRE 1536 560 1536 544
WIRE -192 640 -192 592
WIRE 0 640 0 592
WIRE 384 640 384 448
WIRE 576 640 576 544
WIRE -192 736 -192 720
WIRE 0 736 0 720
WIRE 0 736 -192 736
WIRE 192 736 192 592
WIRE 192 736 0 736
WIRE 384 736 384 720
WIRE 384 736 192 736
WIRE 576 736 576 720
WIRE 576 736 384 736
WIRE 768 736 768 624
WIRE 768 736 576 736
WIRE 960 736 960 624
WIRE 960 736 768 736
WIRE 1072 736 960 736
WIRE 1344 736 1344 624
WIRE 1344 736 1152 736
WIRE 1536 736 1536 624
WIRE 1536 736 1344 736
WIRE 1728 736 1728 208
WIRE 1728 736 1536 736
WIRE 1824 736 1728 736
WIRE 1920 736 1920 112
WIRE 1920 736 1824 736
WIRE 2016 736 1920 736
FLAG 2016 -1088 vcc+
IOPIN 2016 -1088 In
FLAG 992 -1472 x
FLAG 2016 736 vcc-
IOPIN 2016 736 In
FLAG 2208 -416 out
IOPIN 2208 -416 Out
FLAG 1280 -1568 nfb
IOPIN 1280 -1568 Out
FLAG 192 -320 nfb
IOPIN 192 -320 In
FLAG 992 -1360 xp
FLAG 2208 -32 pwrgnd
IOPIN 2208 -32 In
FLAG -384 -208 sgnd
IOPIN -384 -208 In
FLAG -288 -208 sgnd
IOPIN -288 -208 In
FLAG 1280 -1472 sgnd
IOPIN 1280 -1472 In
FLAG 2208 448 sgnd
IOPIN 2208 448 In
FLAG 2208 240 sinus
IOPIN 2208 240 Out
FLAG 960 544 pwrgnd
IOPIN 960 544 In
FLAG 0 -608 pgnd
IOPIN 0 -608 In
FLAG 384 -608 pgnd
IOPIN 384 -608 In
FLAG 2912 -1536 vcc+
IOPIN 2912 -1536 Out
FLAG 2912 -864 vcc-
IOPIN 2912 -864 Out
FLAG 2912 -1344 gspk
IOPIN 2912 -1344 Out
FLAG 2912 -1056 pwrgnd
IOPIN 2912 -1056 Out
FLAG 2912 -1248 pgnd
IOPIN 2912 -1248 Out
FLAG 2912 -1440 sgnd
IOPIN 2912 -1440 Out
FLAG 1856 -1472 out
IOPIN 1856 -1472 In
FLAG 2592 -416 speaker
IOPIN 2592 -416 Out
FLAG 2272 -1328 gspk
IOPIN 2272 -1328 In
FLAG 2272 -1536 speaker
IOPIN 2272 -1536 In
FLAG 2912 -1152 pwrgnd
IOPIN 2912 -1152 Out
FLAG 768 544 pwrgnd
IOPIN 768 544 In
FLAG 2304 240 impulse
IOPIN 2304 240 Out
FLAG 2912 -960 pwrgnd
IOPIN 2912 -960 Out
FLAG 3424 224 0
FLAG 896 -1264 AC1
IOPIN 896 -1264 BiDir
FLAG 1088 -1264 AC2
IOPIN 1088 -1264 BiDir
FLAG 2016 -320 AC1
IOPIN 2016 -320 BiDir
FLAG 2112 -320 AC2
IOPIN 2112 -320 BiDir
FLAG 992 -1264 pwrgnd
IOPIN 992 -1264 In
FLAG 2544 -1536 SPK+
FLAG 2544 -1328 SPK-
FLAG 2400 240 imd
IOPIN 2400 240 Out
FLAG 480 256 pgnd
IOPIN 480 256 In
FLAG 2400 -416 vcc+
IOPIN 2400 -416 In
FLAG 2400 -32 vcc-
IOPIN 2400 -32 In
FLAG 2304 448 sgnd
IOPIN 2304 448 In
FLAG 2400 448 sgnd
IOPIN 2400 448 In
FLAG 1344 544 pwrgnd
IOPIN 1344 544 In
FLAG 1536 544 pwrgnd
IOPIN 1536 544 In
FLAG 1536 -896 pwrgnd
IOPIN 1536 -896 In
FLAG 1344 -896 pwrgnd
IOPIN 1344 -896 In
FLAG -576 -208 sgnd
IOPIN -576 -208 In
FLAG -576 -32 sgnd
IOPIN -576 -32 In
FLAG -576 160 gspk
IOPIN -576 160 In
FLAG 1632 -224 preout
FLAG -576 -512 impulse
IOPIN -576 -512 Out
DATAFLAG 576 -672 "-Ic(Q12)"
DATAFLAG 1824 -1088 ""
DATAFLAG 1824 736 ""
DATAFLAG 1728 -896 "Ic(Q18)"
DATAFLAG -192 -672 "-Ic(Q1)"
DATAFLAG 1824 -224 ""
DATAFLAG 1920 -896 "Ic(Q4)"
SYMBOL res 1472 -1488 R90
WINDOW 0 0 56 VBottom 2
WINDOW 3 32 56 VTop 2
SYMATTR InstName R12
SYMATTR Value {nfb1}
SYMBOL voltage 3536 192 R90
WINDOW 123 0 0 Left 2
WINDOW 3 -94 177 Invisible 2
SYMATTR Value SINE(0 {supplyVLT*sqrt(2)} 50 1m 0 {phi})
SYMATTR SpiceLine Rser={rser}
SYMATTR InstName V2
SYMBOL current 992 -1376 R180
WINDOW 0 24 77 Left 2
WINDOW 3 24 0 Invisible 2
WINDOW 123 -71 178 Left 2
WINDOW 39 0 0 Left 2
SYMATTR InstName Ii
SYMATTR Value 0
SYMATTR Value2 AC {u(prb)}
SYMBOL voltage 992 -1472 R270
WINDOW 0 32 56 VTop 2
WINDOW 3 -32 56 Invisible 2
WINDOW 123 -97 96 VBottom 2
WINDOW 39 -32 56 VBottom 2
SYMATTR InstName Vi
SYMATTR Value 0
SYMATTR Value2 AC {u(-prb)}
SYMBOL pnp -256 -272 M180
WINDOW 0 77 84 Left 2
WINDOW 3 75 52 Left 2
SYMATTR InstName Q11
SYMATTR Value CA_BC560C
SYMBOL res -496 -304 R270
WINDOW 0 32 56 VTop 2
WINDOW 3 0 56 VBottom 2
SYMATTR InstName R33
SYMATTR Value {nfb1}
SYMBOL res -304 -320 R0
SYMATTR InstName R34
SYMATTR Value {nfb2}
SYMBOL res -208 624 R0
SYMATTR InstName R2
SYMATTR Value 100
SYMBOL res -16 624 R0
SYMATTR InstName R3
SYMATTR Value 100
SYMBOL res -208 -512 R0
SYMATTR InstName R9
SYMATTR Value 100
SYMBOL res -16 -512 R0
SYMATTR InstName R10
SYMATTR Value 100
SYMBOL res 560 -1088 R0
SYMATTR InstName R16
SYMATTR Value 47
SYMBOL pnp 512 -752 M180
SYMATTR InstName Q12
SYMATTR Value 2SA1381F
SYMBOL schottky 2384 -336 M180
WINDOW 0 24 72 Left 2
WINDOW 3 24 0 Left 2
SYMATTR InstName D7
SYMATTR Value 1N5404
SYMATTR Description Diode
SYMATTR Type diode
SYMBOL schottky 2384 -48 M180
WINDOW 0 24 72 Left 2
WINDOW 3 24 0 Left 2
SYMATTR InstName D8
SYMATTR Value 1N5404
SYMATTR Description Diode
SYMATTR Type diode
SYMBOL ind2 2496 -208 R270
WINDOW 0 32 56 VTop 2
WINDOW 3 4 56 VBottom 2
SYMATTR InstName LTRF
SYMATTR Value 2µ
SYMATTR SpiceLine Rser=10m Rpar=3meg Cpar=1p
SYMATTR Type ind
SYMBOL res 2496 -112 R270
WINDOW 0 32 56 VTop 2
WINDOW 3 0 56 VBottom 2
SYMATTR InstName R19
SYMATTR Value 2.2
SYMBOL res 1664 -1488 R90
WINDOW 0 0 56 VBottom 2
WINDOW 3 32 56 VTop 2
SYMATTR InstName R20
SYMATTR Value {nfb2}
SYMBOL voltage 992 -1472 R90
WINDOW 0 -32 56 VBottom 2
WINDOW 3 32 56 Invisible 2
WINDOW 123 0 0 Left 2
WINDOW 39 0 0 Left 2
SYMATTR InstName V1
SYMATTR Value 0
SYMBOL schottky 3504 -304 M180
WINDOW 0 24 72 Left 2
WINDOW 3 -14 -112 Left 2
SYMATTR InstName D6
SYMATTR Value GBPC3502
SYMATTR Description Diode
SYMATTR Type diode
SYMBOL schottky 3120 -368 R0
WINDOW 3 -144 95 Left 2
SYMATTR Value GBPC3502
SYMATTR InstName D9
SYMATTR Description Diode
SYMATTR Type diode
SYMBOL voltage 3424 192 M270
WINDOW 123 0 0 Left 2
WINDOW 3 -96 -62 Invisible 2
SYMATTR Value SINE(0 {supplyVLT*sqrt(2)} 50 1m 0 {phi})
SYMATTR SpiceLine Rser={rser}
SYMATTR InstName V3
SYMBOL res 2192 -224 R0
SYMATTR InstName R54
SYMATTR Value 10
SYMBOL res 2576 -1536 R0
SYMATTR InstName R60
SYMATTR Value {Zreal}
SYMBOL ind 2576 -1440 R0
SYMATTR InstName L19
SYMATTR Value {Zimg}
SYMATTR SpiceLine Cpar=10p
SYMBOL voltage 992 -1360 M0
WINDOW 123 0 0 Left 2
WINDOW 39 0 0 Left 2
WINDOW 3 24 96 Invisible 2
SYMATTR Value 0
SYMATTR InstName V18
SYMBOL pnp 1664 208 M180
SYMATTR InstName Q17
SYMATTR Value 2SA1837
SYMBOL npn 1664 -656 R0
SYMATTR InstName Q18
SYMATTR Value 2SC4793
SYMBOL res 1648 -624 R90
WINDOW 0 0 56 VBottom 2
WINDOW 3 32 56 VTop 2
SYMATTR InstName R27
SYMATTR Value 22
SYMBOL res 1648 144 R90
WINDOW 0 0 56 VBottom 2
WINDOW 3 32 56 VTop 2
SYMATTR InstName R30
SYMATTR Value 22
SYMBOL cap 2192 -112 R0
SYMATTR InstName C24
SYMATTR Value 100n
SYMATTR SpiceLine Rser=700m Lser=7n Rpar=4.4meg Cpar=1p
SYMBOL cap 1328 624 M180
WINDOW 0 24 56 Left 2
WINDOW 3 24 8 Left 2
SYMATTR InstName C25
SYMATTR Value 100n
SYMATTR SpiceLine Rser=700m Lser=7n Rpar=4.4meg Cpar=1p
SYMBOL polcap 1360 -1488 R90
WINDOW 0 0 32 VBottom 2
WINDOW 3 32 32 VTop 2
SYMATTR InstName C2
SYMATTR Value 2200µ
SYMATTR SpiceLine V=6.3 Irms=1.44 Rser=0.09 Lser=5.5n Rpar=1110k Cpar=3p mfg="Nichicon" pn="UPW0J222MPD6TD" type="Al electrolytic"
SYMATTR Description Capacitor
SYMATTR Type cap
SYMBOL res -208 -1088 R0
SYMATTR InstName R47
SYMATTR Value 100
SYMBOL res 560 -336 R0
WINDOW 3 36 76 Invisible 2
SYMATTR Value {1+(500*BIAS)}
SYMATTR InstName PBIAS1
SYMBOL res 560 -608 R0
SYMATTR InstName R52
SYMATTR Value 1k2
SYMBOL res 768 -624 R90
WINDOW 0 0 56 VBottom 2
WINDOW 3 32 56 VTop 2
SYMATTR InstName R53
SYMATTR Value 11
SYMBOL schottky 3696 -304 M180
WINDOW 0 24 72 Left 2
WINDOW 3 -112 -78 Left 2
SYMATTR InstName D10
SYMATTR Value GBPC3502
SYMATTR Description Diode
SYMATTR Type diode
SYMBOL schottky 3312 -368 R0
WINDOW 3 -239 65 Left 2
SYMATTR Value GBPC3502
SYMATTR InstName D11
SYMATTR Description Diode
SYMATTR Type diode
SYMBOL ind2 2928 -1520 R270
WINDOW 0 32 56 VTop 2
WINDOW 3 5 56 VBottom 2
SYMATTR InstName LVCC
SYMATTR Value {con1_len*20n}
SYMATTR SpiceLine Rser={con1_len*.5m}
SYMATTR Type ind
SYMBOL ind2 2928 -848 R270
WINDOW 0 32 56 VTop 2
WINDOW 3 5 56 VBottom 2
SYMATTR InstName LVEE
SYMATTR Value {con1_len*20n}
SYMATTR SpiceLine Rser={con1_len*.5m}
SYMATTR Type ind
SYMBOL npn 512 400 R0
SYMATTR InstName Q3
SYMATTR Value 2SC3503F
SYMBOL res 560 624 R0
SYMATTR InstName R6
SYMATTR Value 12
SYMBOL voltage 2208 336 R0
WINDOW 123 24 44 Left 2
WINDOW 39 0 0 Left 2
WINDOW 3 24 96 Invisible 2
SYMATTR Value SINE(0 {vinput} {freq})
SYMATTR InstName V11
SYMBOL res 368 -816 R0
SYMATTR InstName R4
SYMATTR Value 7k5
SYMBOL res 1712 -336 R0
SYMATTR InstName R1
SYMATTR Value 47
SYMBOL pnp -128 -752 R180
SYMATTR InstName Q1
SYMATTR Value 2SA1381F
SYMBOL pnp 64 -272 R180
WINDOW 0 77 84 Left 2
WINDOW 3 75 52 Left 2
SYMATTR InstName Q7
SYMATTR Value CA_BC560C
SYMBOL npn 704 -464 R0
SYMATTR InstName Q21
SYMATTR Value MJE340
SYMBOL res 1168 720 R90
WINDOW 0 0 56 VBottom 2
WINDOW 3 32 56 VTop 2
SYMATTR InstName R17
SYMATTR Value 10
SYMBOL ind2 2928 -1328 R270
WINDOW 0 32 56 VTop 2
WINDOW 3 5 56 VBottom 2
SYMATTR InstName LGSPK2
SYMATTR Value {con1_len*20n}
SYMATTR SpiceLine Rser={con1_len*.5m}
SYMATTR Type ind
SYMBOL ind2 2928 -1040 R270
WINDOW 0 32 56 VTop 2
WINDOW 3 5 56 VBottom 2
SYMATTR InstName LPWRGND2
SYMATTR Value {con1_len*20n}
SYMATTR SpiceLine Rser={con1_len*.5m}
SYMATTR Type ind
SYMBOL ind2 2928 -1232 R270
WINDOW 0 32 56 VTop 2
WINDOW 3 5 56 VBottom 2
SYMATTR InstName LPGND
SYMATTR Value {con1_len*20n}
SYMATTR SpiceLine Rser={con1_len*.5m}
SYMATTR Type ind
SYMBOL ind2 2928 -1424 R270
WINDOW 0 32 56 VTop 2
WINDOW 3 5 56 VBottom 2
SYMATTR InstName LSGND
SYMATTR Value {con1_len*20n}
SYMATTR SpiceLine Rser={con1_len*.5m}
SYMATTR Type ind
SYMBOL res 3152 -1552 R90
WINDOW 0 0 56 VBottom 2
WINDOW 3 32 56 VTop 2
SYMATTR InstName R18
SYMATTR Value 25m
SYMBOL res 3152 -1360 R90
WINDOW 0 0 56 VBottom 2
WINDOW 3 32 56 VTop 2
SYMATTR InstName R26
SYMATTR Value 25m
SYMBOL res 3152 -1072 R90
WINDOW 0 0 56 VBottom 2
WINDOW 3 32 56 VTop 2
SYMATTR InstName R28
SYMATTR Value 25m
SYMBOL res 3152 -1264 R90
WINDOW 0 0 56 VBottom 2
WINDOW 3 32 56 VTop 2
SYMATTR InstName R29
SYMATTR Value 25m
SYMBOL res 3152 -1456 R90
WINDOW 0 0 56 VBottom 2
WINDOW 3 32 56 VTop 2
SYMATTR InstName R32
SYMATTR Value 50m
SYMBOL res 3152 -880 R90
WINDOW 0 0 56 VBottom 2
WINDOW 3 32 56 VTop 2
SYMATTR InstName R38
SYMATTR Value 25m
SYMBOL ind 3408 -1072 R0
SYMATTR InstName L4
SYMATTR Value 4n
SYMATTR SpiceLine Rser=1m
SYMBOL ind 3408 -1264 R0
SYMATTR InstName L5
SYMATTR Value 2n
SYMATTR SpiceLine Rser=1m
SYMBOL ind 3408 -1360 R0
SYMATTR InstName L6
SYMATTR Value 2n
SYMATTR SpiceLine Rser=1m
SYMBOL ind 3408 -1456 R0
SYMATTR InstName L18
SYMATTR Value 2n
SYMATTR SpiceLine Rser=1m
SYMBOL ind2 2288 -1520 R270
WINDOW 0 32 56 VTop 2
WINDOW 3 5 56 VBottom 2
SYMATTR InstName LSPKP
SYMATTR Value {con2_len*20n}
SYMATTR SpiceLine Rser={con2_len*.5m}
SYMATTR Type ind
SYMBOL ind2 2288 -1312 R270
WINDOW 0 32 56 VTop 2
WINDOW 3 5 56 VBottom 2
SYMATTR InstName LSPKN2
SYMATTR Value {con2_len*20n}
SYMATTR SpiceLine Rser={con2_len*.5m}
SYMATTR Type ind
SYMBOL res 2512 -1552 R90
WINDOW 0 0 56 VBottom 2
WINDOW 3 32 56 VTop 2
SYMATTR InstName R41
SYMATTR Value 15m
SYMBOL res 2512 -1344 R90
WINDOW 0 0 56 VBottom 2
WINDOW 3 32 56 VTop 2
SYMATTR InstName R43
SYMATTR Value 15m
SYMBOL ind2 2928 -944 R270
WINDOW 0 32 56 VTop 2
WINDOW 3 5 56 VBottom 2
SYMATTR InstName LDGND
SYMATTR Value {con1_len*20n}
SYMATTR SpiceLine Rser={con1_len*.5m}
SYMATTR Type ind
SYMBOL res 3152 -976 R90
WINDOW 0 0 56 VBottom 2
WINDOW 3 32 56 VTop 2
SYMATTR InstName R31
SYMATTR Value 25m
SYMBOL ind2 2928 -1136 R270
WINDOW 0 32 56 VTop 2
WINDOW 3 5 56 VBottom 2
SYMATTR InstName LPWRGND1
SYMATTR Value {con1_len*20n}
SYMATTR SpiceLine Rser={con1_len*.5m}
SYMATTR Type ind
SYMBOL res 3152 -1168 R90
WINDOW 0 0 56 VBottom 2
WINDOW 3 32 56 VTop 2
SYMATTR InstName R25
SYMATTR Value 25m
SYMBOL cap 752 560 R0
SYMATTR InstName C10
SYMATTR Value 100n
SYMATTR SpiceLine Rser=700m Lser=7n Rpar=4.4meg Cpar=1p
SYMBOL voltage 2304 336 R0
WINDOW 3 24 96 Invisible 2
WINDOW 123 0 0 Left 2
WINDOW 39 0 0 Left 2
SYMATTR Value PULSE(0 {vinput/2} 1u 1n 1n {1/(freq*2)} {1/freq})
SYMATTR InstName V7
SYMBOL voltage 2304 240 R0
WINDOW 3 24 96 Invisible 2
WINDOW 123 0 0 Left 2
WINDOW 39 0 0 Left 2
SYMATTR Value PULSE(0 {-vinput/2} {1u+(1/(freq*2))} 1n 1n {1/(freq*2)} {1/freq})
SYMATTR InstName V8
SYMBOL polcap -496 -304 M270
WINDOW 3 0 32 VBottom 2
WINDOW 0 32 32 VTop 2
SYMATTR Value 220µ
SYMATTR InstName C11
SYMATTR SpiceLine V=6.3 Irms=290m Rser=0.5 Lser=3n Rpar=1100k Cpar=3p mfg="Nichicon" pn="UPW0J221MED1TD" type="Al electrolytic"
SYMATTR Description Capacitor
SYMATTR Type cap
SYMBOL polcap 944 560 R0
SYMATTR Value 470µ
SYMATTR InstName C12
SYMATTR SpiceLine V=6.3 Irms=290m Rser=0.5 Lser=3n Rpar=1100k Cpar=3p
SYMATTR Description Capacitor
SYMATTR Type cap
SYMBOL polcap 1520 560 R0
SYMATTR InstName C17
SYMATTR Value 1000µ
SYMATTR SpiceLine V=63 Irms=2.77 Rser=0.036 Lser=5n Rpar=900k Cpar=3p mfg="Nichicon" pn="UPW1J102MHD6" type="Al electrolytic"
SYMATTR Description Capacitor
SYMATTR Type cap
SYMBOL polcap 944 -304 R0
SYMATTR InstName C21
SYMATTR Value 22µ
SYMATTR SpiceLine V=100 Irms=250m Rser=0.71 Lser=2n Rpar=2meg Cpar=2p mfg="Nichicon" pn="UPW1J220MED" type="Al electrolytic"
SYMATTR Description Capacitor
SYMATTR Type cap
SYMBOL res 560 -224 R0
SYMATTR InstName R37
SYMATTR Value 240
SYMBOL voltage 1920 -224 R270
WINDOW 0 -32 56 VBottom 2
WINDOW 3 32 56 Invisible 2
WINDOW 123 0 0 Left 2
WINDOW 39 0 0 Left 2
SYMATTR InstName V4
SYMATTR Value 0
SYMBOL voltage 2208 -224 R90
WINDOW 0 -32 56 VBottom 2
WINDOW 3 32 56 Invisible 2
WINDOW 123 0 0 Left 2
WINDOW 39 0 0 Left 2
SYMATTR InstName V6
SYMATTR Value 0
SYMBOL voltage 2400 336 R0
WINDOW 3 24 96 Invisible 2
WINDOW 123 0 0 Left 2
WINDOW 39 0 0 Left 2
SYMATTR Value SINE(0 {vinput/2} 19k)
SYMATTR InstName V9
SYMBOL voltage 2400 240 R0
WINDOW 3 24 96 Invisible 2
WINDOW 123 0 0 Left 2
WINDOW 39 0 0 Left 2
SYMATTR Value SINE(0 {vinput/2} 20k 0 0)
SYMATTR InstName V10
SYMBOL ind 1648 -1456 R270
WINDOW 0 32 56 VTop 2
WINDOW 3 5 56 VBottom 2
SYMATTR InstName L2
SYMATTR Value {20n+knfb}
SYMBOL res 368 -720 R0
SYMATTR InstName R82
SYMATTR Value 7k5
SYMBOL npn 1856 -560 R0
SYMATTR InstName Q4
SYMATTR Value MJL3281A
SYMBOL pnp 1856 112 M180
SYMATTR InstName Q9
SYMATTR Value MJL1302A
SYMBOL res 1840 -528 R90
WINDOW 0 0 56 VBottom 2
WINDOW 3 32 56 VTop 2
SYMATTR InstName R5
SYMATTR Value 2
SYMBOL res 1840 48 R90
WINDOW 0 0 56 VBottom 2
WINDOW 3 32 56 VTop 2
SYMATTR InstName R68
SYMATTR Value 2
SYMBOL cap 368 -48 R90
WINDOW 0 0 32 VBottom 2
WINDOW 3 32 32 VTop 2
SYMATTR InstName C3
SYMATTR Value 100p
SYMATTR SpiceLine Rser=140m Lser=3n Rpar=7.4meg
SYMBOL res 1664 -1392 R90
WINDOW 0 0 56 VBottom 2
WINDOW 3 32 56 VTop 2
SYMATTR InstName R13
SYMATTR Value 6k8
SYMBOL cap 1552 -1392 R90
WINDOW 0 0 32 VBottom 2
WINDOW 3 32 32 VTop 2
SYMATTR InstName C9
SYMATTR Value 12p
SYMATTR SpiceLine Rser=140m Lser=3n Rpar=7.4meg
SYMBOL res -16 -720 R0
SYMATTR InstName R45
SYMATTR Value 15k
SYMBOL npn -64 496 R0
SYMATTR InstName Q6
SYMATTR Value CA_BC550C
SYMBOL npn -128 496 M0
SYMATTR InstName Q8
SYMATTR Value CA_BC550C
SYMBOL res 576 -912 R90
WINDOW 0 0 56 VBottom 2
WINDOW 3 32 56 VTop 2
SYMATTR InstName R15
SYMATTR Value 1k
SYMBOL res -80 -912 R90
WINDOW 0 0 56 VBottom 2
WINDOW 3 32 56 VTop 2
SYMATTR InstName R44
SYMATTR Value 1k
SYMBOL npn 320 304 R0
SYMATTR InstName Q2
SYMATTR Value CA_BC550C
SYMBOL res 368 624 R0
SYMATTR InstName R7
SYMATTR Value 510
SYMBOL cap 464 -48 R90
WINDOW 0 0 32 VBottom 2
WINDOW 3 32 32 VTop 2
SYMATTR InstName C5
SYMATTR Value 1n
SYMATTR SpiceLine Rser=140m Lser=3n Rpar=7.4meg
SYMBOL res 368 -224 R0
SYMATTR InstName R8
SYMATTR Value 750
SYMBOL diode 400 176 R270
WINDOW 0 32 32 VTop 2
WINDOW 3 0 32 VBottom 2
SYMATTR InstName D1
SYMATTR Value BAV21
SYMBOL pnp -64 -848 M180
WINDOW 0 77 84 Left 2
WINDOW 3 75 52 Left 2
SYMATTR InstName Q5
SYMATTR Value CA_BC560C
SYMBOL pnp 448 -848 R180
WINDOW 0 77 84 Left 2
WINDOW 3 75 52 Left 2
SYMATTR InstName Q10
SYMATTR Value CA_BC560C
SYMBOL res 304 -48 R90
WINDOW 0 0 56 VBottom 2
WINDOW 3 32 56 VTop 2
SYMATTR InstName R11
SYMATTR Value 47
SYMBOL cap 176 -784 R0
SYMATTR InstName C1
SYMATTR Value 4µ7
SYMATTR SpiceLine Rser=700m Lser=7n Rpar=4.4meg Cpar=1p
SYMBOL res 1904 -416 R0
SYMATTR InstName R14
SYMATTR Value 0.22
SYMBOL res 1904 -144 R0
SYMATTR InstName R21
SYMATTR Value 0.22
SYMBOL cap 3024 -368 R0
SYMATTR InstName C7
SYMATTR Value 100n
SYMATTR SpiceLine Rser=700m Lser=7n Rpar=4.4meg Cpar=1p
SYMBOL cap 3216 -368 R0
SYMATTR InstName C8
SYMATTR Value 100n
SYMATTR SpiceLine Rser=700m Lser=7n Rpar=4.4meg Cpar=1p
SYMBOL cap 3600 -368 R0
SYMATTR InstName C13
SYMATTR Value 100n
SYMATTR SpiceLine Rser=700m Lser=7n Rpar=4.4meg Cpar=1p
SYMBOL cap 3792 -368 R0
SYMATTR InstName C15
SYMATTR Value 100n
SYMATTR SpiceLine Rser=700m Lser=7n Rpar=4.4meg Cpar=1p
SYMBOL polcap 3408 -784 R90
WINDOW 0 0 32 VBottom 2
WINDOW 3 32 32 VTop 2
SYMATTR InstName C18
SYMATTR Value 220µ
SYMATTR SpiceLine V=50 Irms=1.04 Rser=0.075 Lser=0 Rpar=40k Cpar=3p mfg="Nichicon" pn="UPL1H221MPH" type="Al electrolytic"
SYMATTR Description Capacitor
SYMATTR Type cap
SYMBOL polcap 3504 -784 R90
WINDOW 0 0 32 VBottom 2
WINDOW 3 32 32 VTop 2
SYMATTR InstName C19
SYMATTR Value 220µ
SYMATTR SpiceLine V=50 Irms=1.04 Rser=0.075 Lser=0 Rpar=40k Cpar=3p mfg="Nichicon" pn="UPL1H221MPH" type="Al electrolytic"
SYMATTR Description Capacitor
SYMATTR Type cap
SYMBOL cap 3440 80 M90
WINDOW 0 0 32 VBottom 2
WINDOW 3 32 32 VTop 2
SYMATTR InstName C22
SYMATTR Value 100n
SYMATTR SpiceLine Rser=700m Lser=7n Rpar=4.4meg Cpar=1p
SYMBOL cap 3344 80 M90
WINDOW 0 0 32 VBottom 2
WINDOW 3 32 32 VTop 2
SYMATTR InstName C23
SYMATTR Value 100n
SYMATTR SpiceLine Rser=700m Lser=7n Rpar=4.4meg Cpar=1p
SYMBOL cap 3440 -16 M90
WINDOW 0 0 32 VBottom 2
WINDOW 3 32 32 VTop 2
SYMATTR InstName C26
SYMATTR Value 10n
SYMATTR SpiceLine Rser=700m Lser=7n Rpar=4.4meg Cpar=1p
SYMBOL npn 256 496 M0
SYMATTR InstName Q13
SYMATTR Value CA_BC550C
SYMBOL res 384 528 R90
WINDOW 0 0 56 VBottom 2
WINDOW 3 32 56 VTop 2
SYMATTR InstName R22
SYMATTR Value 1k
SYMBOL pnp 1216 16 R180
WINDOW 0 77 84 Left 2
WINDOW 3 75 52 Left 2
SYMATTR InstName Q14
SYMATTR Value CA_BC560C
SYMBOL npn 1216 -464 M0
SYMATTR InstName Q15
SYMATTR Value CA_BC550C
SYMBOL diode 1136 -592 R0
SYMATTR InstName D2
SYMATTR Value 1N4148
SYMBOL diode 1136 80 R0
SYMATTR InstName D3
SYMATTR Value 1N4148
SYMBOL res 1328 -336 R0
SYMATTR InstName R23
SYMATTR Value 240
SYMBOL res 1328 -224 R0
SYMATTR InstName R24
SYMATTR Value 240
SYMBOL res 1840 -432 R90
WINDOW 0 0 56 VBottom 2
WINDOW 3 32 56 VTop 2
SYMATTR InstName R35
SYMATTR Value 240
SYMBOL res 1840 -48 R90
WINDOW 0 0 56 VBottom 2
WINDOW 3 32 56 VTop 2
SYMATTR InstName R36
SYMATTR Value 240
SYMBOL res 1520 -336 R0
SYMATTR InstName R39
SYMATTR Value 120
SYMBOL res 1520 -224 R0
SYMATTR InstName R40
SYMATTR Value 120
SYMBOL polcap 1520 -400 R0
SYMATTR InstName C27
SYMATTR Value 10µ
SYMATTR SpiceLine V=100 Irms=250m Rser=0.71 Lser=2n Rpar=2meg Cpar=2p
SYMATTR Description Capacitor
SYMATTR Type cap
SYMBOL polcap 1520 -112 R0
SYMATTR InstName C28
SYMATTR Value 10µ
SYMATTR SpiceLine V=100 Irms=250m Rser=0.71 Lser=2n Rpar=2meg Cpar=2p
SYMATTR Description Capacitor
SYMATTR Type cap
SYMBOL polcap 3408 -688 R90
WINDOW 0 0 32 VBottom 2
WINDOW 3 32 32 VTop 2
SYMATTR InstName C30
SYMATTR Value 10m
SYMATTR SpiceLine V=50 Irms=2.5 Rser=0.08 Lser=20n Rpar=40k Cpar=3p
SYMATTR Description Capacitor
SYMATTR Type cap
SYMBOL polcap 3504 -688 R90
WINDOW 0 0 32 VBottom 2
WINDOW 3 32 32 VTop 2
SYMATTR InstName C6
SYMATTR Value 10m
SYMATTR SpiceLine V=50 Irms=2.5 Rser=0.08 Lser=20n Rpar=40k Cpar=3p
SYMATTR Description Capacitor
SYMATTR Type cap
SYMBOL res 3424 -880 R90
WINDOW 0 0 56 VBottom 2
WINDOW 3 32 56 VTop 2
SYMATTR InstName R42
SYMATTR Value 10k
SYMBOL res 3536 -880 R90
WINDOW 0 0 56 VBottom 2
WINDOW 3 32 56 VTop 2
SYMATTR InstName R46
SYMATTR Value 10k
SYMBOL cap 3344 -496 M90
WINDOW 0 0 32 VBottom 2
WINDOW 3 32 32 VTop 2
SYMATTR InstName C16
SYMATTR Value 100n
SYMATTR SpiceLine Rser=700m Lser=7n Rpar=4.4meg Cpar=1p
SYMBOL cap 3440 -496 M90
WINDOW 0 0 32 VBottom 2
WINDOW 3 32 32 VTop 2
SYMATTR InstName C29
SYMATTR Value 100n
SYMATTR SpiceLine Rser=700m Lser=7n Rpar=4.4meg Cpar=1p
SYMBOL cap 3440 -592 M90
WINDOW 0 0 32 VBottom 2
WINDOW 3 32 32 VTop 2
SYMATTR InstName C31
SYMATTR Value 100n
SYMATTR SpiceLine Rser=700m Lser=7n Rpar=4.4meg Cpar=1p
SYMBOL polcap 1520 -976 R0
SYMATTR InstName C32
SYMATTR Value 1000µ
SYMATTR SpiceLine V=63 Irms=2.77 Rser=0.036 Lser=5n Rpar=900k Cpar=3p mfg="Nichicon" pn="UPW1J102MHD6" type="Al electrolytic"
SYMATTR Description Capacitor
SYMATTR Type cap
SYMBOL cap 1328 -976 R0
SYMATTR InstName C33
SYMATTR Value 100n
SYMATTR SpiceLine Rser=700m Lser=7n Rpar=4.4meg Cpar=1p
SYMBOL res -592 -320 R0
SYMATTR InstName R48
SYMATTR Value 100k
SYMBOL res -592 -32 R0
SYMATTR InstName R49
SYMATTR Value 10
SYMBOL cap -400 -240 M180
WINDOW 0 24 56 Left 2
WINDOW 3 24 8 Left 2
SYMATTR InstName C4
SYMATTR Value 2n2
SYMATTR SpiceLine Rser=140m Lser=3n Rpar=7.4meg
TEXT 144 -1488 Left 2 !;op
TEXT -560 -1344 Left 2 !.option plotwinsize=0
TEXT -560 -1312 Left 2 !.option noopiter
TEXT -560 -1616 Left 2 ;Transient
TEXT -560 -1456 Left 2 !.four {freq} 10 10 v(SPK+,SPK-)
TEXT 144 -1520 Left 2 !.param prb=0
TEXT -560 -1520 Left 2 !.param timestep {1/((262144/8)*freq)}
TEXT -560 -1552 Left 2 !.param freq 100k
TEXT -560 -1488 Left 2 !.param stoptime {iterations/freq}
TEXT 144 -1584 Left 2 !;ac oct 100 10 100meg
TEXT 144 -1552 Left 2 ;.step param prb list -1 1
TEXT 144 -1616 Left 2 ;AC analysis
TEXT -560 -1424 Left 2 !.param iterations 80
TEXT -224 -1280 Left 2 !.lib usr/ONNN_BJT.lib
TEXT 152 -1280 Left 2 !.param Zimp 6
TEXT 2144 -1216 Left 2 !.param Zreal Zimp/2
TEXT 2144 -1184 Left 2 !.param Zimg (Zimp*sqrt(3))/(4*pi*freq)
TEXT 152 -1248 Left 2 !.param supplyPWR 100
TEXT 152 -1216 Left 2 !.param supplyVLT 24
TEXT -224 -1216 Left 2 !.lib usr/STM_D.lib
TEXT -224 -1312 Left 2 !.lib usr/FCS_BJT.lib
TEXT 152 -1312 Left 2 !.param voutput 25
TEXT 152 -1184 Left 2 !.param supplyK 0.06
TEXT 2832 304 Left 2 !.param rser {(supplyVLT*supplyVLT*supplyK)/(2*supplyPWR)}