Version 4
SHEET 1 880 680
WIRE 32 64 -64 64
WIRE 128 64 32 64
WIRE -64 80 -64 64
WIRE 128 112 128 64
WIRE 224 176 176 176
WIRE -64 192 -64 160
WIRE -64 288 -64 272
WIRE 128 288 128 240
WIRE 128 288 -64 288
WIRE 224 288 224 176
WIRE 224 288 128 288
WIRE -64 304 -64 288
FLAG -64 304 0
FLAG 32 64 vb
SYMBOL LM185 128 176 R0
SYMATTR InstName X1
SYMBOL voltage -64 176 R0
WINDOW 123 0 0 Left 0
WINDOW 39 0 0 Left 0
SYMATTR InstName V1
SYMATTR Value 9
SYMBOL res -80 64 R0
SYMATTR InstName R1
SYMATTR Value 10k
TEXT -256 -96 Left 0 !.op
